%chk=1.chk
%nproc=28
%mem=32GB
#p PBE1PBE/6-311++G(d,p) SCRF=(CPCM,solvent=water,read) SCF=(Tight,MaxCycle=200)

x

0 1
 6                    0    -0.35746  -0.95226   0.64905 
 6                    0    -0.13374  -2.14141   0.67116 
 1                    0     0.05569  -3.19627   0.70243 
 6                    0    -0.60589   0.49672   0.5288 
 1                    0    -1.37733   0.79404   1.24607 
 1                    0    -1.01202   0.68839  -0.47194 
 7                    0     0.54976   1.35743   0.72467 
 1                    0     1.31872   1.05935   0.12666 
 6                    0     0.99228   1.54234   2.10654 
 6                    0     2.36987   0.99278   2.42021 
 6                    0     2.89452  -0.25093   2.08247 
 6                    0     3.12479   1.91681   3.14715 
 6                    0     4.20843  -0.54993   2.44757 
 1                    0     2.28834  -0.97932   1.54422 
 1                    0     4.62222  -1.52432   2.20437 
 6                    0     4.98837   0.39267   3.12407 
 1                    0     6.01508   0.15387   3.3864 
 6                    0     4.44666   1.63109   3.48626 
 1                    0     5.0463    2.35348   4.03457 
 6                    0     2.29034   3.13145   3.48489 
 1                    0     1.92799   3.04548   4.51751 
 1                    0     2.84637   4.07087   3.41198 
 6                    0     1.12912   3.03986   2.47723 
 1                    0     1.3923    3.57844   1.55982 
 1                    0     0.1894    3.4559    2.85425 
 1                    0     0.25573   1.0585    2.765 
 6                    0     6.9479   -1.64411   0.23798 
 6                    0     6.92222  -2.5561   -0.98744 
 1                    0     7.89572  -2.55568  -1.49465 
 1                    0     6.67682  -3.58755  -0.71764 
 1                    0     6.16466  -2.22426  -1.70598 
 6                    0     7.91971  -2.14197   1.3138 
 1                    0     8.94014  -2.14137   0.90421 
 1                    0     7.92109  -1.41762   2.13972 
 6                    0     7.58175  -3.52705   1.86385 
 1                    0     8.20738  -3.77291   2.72696 
 1                    0     6.53332  -3.57263   2.18209 
 1                    0     7.73283  -4.30871   1.11385 
 6                    0     6.1341    0.23713  -3.78151 
 6                    0     4.81964   0.92893  -3.42967 
 1                    0     4.92216   1.47029  -2.47965 
 1                    0     4.59039   1.68866  -4.18421 
 6                    0     3.64105  -0.05001  -3.36363 
 1                    0     2.68955   0.48572  -3.28118 
 1                    0     3.59748  -0.65568  -4.27345 
 6                    0     3.68989  -1.01415  -2.19702 
 8                    0     3.53147  -2.2435   -2.3539 
 7                    0     3.89402  -0.49268  -0.98452 
 1                    0     4.05881   0.494    -0.80616 
 1                    0     3.8885   -1.11177  -0.17984 
 6                    0     2.60339   7.95726  -1.27651 
 6                    0     1.7208    6.9527   -0.52776 
 1                    0     1.41955   7.37748   0.43736 
 1                    0     0.8002    6.77743  -1.09567 
 6                    0     2.4298    5.63768  -0.3048 
 6                    0     3.37936   5.50011   0.71281 
 1                    0     3.57574   6.33891   1.37718 
 6                    0     4.08607   4.31467   0.89015 
 1                    0     4.8276    4.22097   1.67991 
 6                    0     3.83223   3.23239   0.04881 
 8                    0     4.51815   2.05152   0.1621 
 1                    0     4.82547   1.92125   1.07813 
 6                    0     2.88415   3.34162  -0.96618 
 1                    0     2.68115   2.48648  -1.60686 
 6                    0     2.19708   4.53994  -1.13823 
 1                    0     1.45218   4.6162   -1.92717 
 6                    0    -1.16717   5.29214   0.88982 
 6                    0    -2.01664   4.06882   0.53326 
 1                    0    -1.55973   3.17469   0.97593 
 1                    0    -3.01067   4.17392   0.97962 
 6                    0    -2.13953   3.8856   -0.95894 
 6                    0    -3.2063    4.45051  -1.66561 
 1                    0    -3.96906   5.00558  -1.12254 
 6                    0    -3.30497   4.30721  -3.04937 
 1                    0    -4.14339   4.74921  -3.58046 
 6                    0    -2.33393   3.59037  -3.74777 
 1                    0    -2.41395   3.46834  -4.82362 
 6                    0    -1.26334   3.02775  -3.0542 
 1                    0    -0.50948   2.45273  -3.58433 
 6                    0    -1.16431   3.17989  -1.6719 
 1                    0    -0.33007   2.74136  -1.12516 
 6                    0    -7.16362   0.25681   3.00251 
 6                    0    -7.3819    0.53767   1.52189 
 1                    0    -6.4366    0.8309    1.05705 
 1                    0    -8.10609   1.34444   1.37357 
 16                   0    -7.98608  -0.96519   0.68282 
 6                    0    -7.64337  -0.51857  -1.05797 
 1                    0    -8.15949   0.41278  -1.29753 
 1                    0    -8.11031  -1.31395  -1.64538 
 6                    0    -6.16822  -0.44188  -1.37112 
 6                    0    -5.44771  -1.63199  -1.39434 
 6                    0    -4.07893  -1.63514  -1.68767 
 1                    0    -5.97042  -2.55858  -1.1826 
 6                    0    -5.52882   0.7993   -1.62194 
 6                    0    -6.28848   2.10307  -1.63592 
 1                    0    -7.02514   2.12451  -2.44629 
 1                    0    -6.82865   2.27667  -0.69968 
 1                    0    -5.5971    2.93506  -1.78723 
 6                    0    -4.16837   0.79318  -1.88401 
 1                    0    -3.62543   1.71758  -2.06969 
 6                    0    -3.434    -0.40194  -1.92793 
 7                    0    -2.08785  -0.33781  -2.18832 
 6                    0    -1.42647  -1.44151  -2.23937 
 6                    0     0.05776  -1.37297  -2.41175 
 8                    0     0.6859   -0.3308   -2.35323 
 7                    0     0.63057  -2.59116  -2.64233 
 1                    0     1.64757  -2.61039  -2.77022 
 6                    0    -0.03379  -3.83106  -2.67556 
 8                    0     0.58789  -4.81729  -3.02553 
 7                    0    -1.35803  -3.88966  -2.29364 
 6                    0    -2.01105  -2.77573  -2.10281 
 7                    0    -3.33668  -2.80503  -1.77202 
 6                    0    -3.99688  -4.08904  -1.53353 
 6                    0    -4.65408  -2.97042   2.18949 
 6                    0    -3.2715   -2.35073   1.9704 
 1                    0    -2.51785  -2.89914   2.5469 
 1                    0    -2.98013  -2.45433   0.9159 
 6                    0    -3.2164   -0.89256   2.35581 
 6                    0    -3.91099   0.066     1.60999 
 1                    0    -4.48328  -0.25487   0.74182 
 6                    0    -3.88373   1.41524   1.94506 
 1                    0    -4.41626   2.1541    1.35119 
 6                    0    -3.14996   1.83433   3.05848 
 8                    0    -3.15951   3.16279   3.36298 
 1                    0    -2.60461   3.31882   4.14195 
 6                    0    -2.44339   0.89635   3.81209 
 1                    0    -1.86545   1.2193    4.67511 
 6                    0    -2.48233  -0.45151   3.45699 
 1                    0    -1.92062  -1.17055   4.04804 
 6                    0    -1.83439  -5.79774   1.01498 
 6                    0    -0.57005  -6.33148   1.69903 
 1                    0    -0.69992  -6.31567   2.78655 
 1                    0    -0.42532  -7.38094   1.41462 
 6                    0     0.65451  -5.52702   1.32626 
 6                    0     1.39046  -4.81109   2.27474 
 1                    0     1.09971  -4.85821   3.32146 
 6                    0     2.47784  -4.01924   1.90836 
 1                    0     3.03365  -3.45384   2.65081 
 6                    0     2.84852  -3.93515   0.56621 
 8                    0     3.90806  -3.15036   0.21918 
 1                    0     3.90441  -3.04301  -0.76393 
 6                    0     2.13948  -4.65863  -0.39521 
 1                    0     2.4288   -4.6053   -1.44086 
 6                    0     1.05569  -5.43966  -0.01213 
 1                    0     0.50868  -5.97606  -0.78368 
 1                    0    -6.8226    1.1666    3.50493 
 1                    0    -6.39912  -0.51405   3.13857 
 1                    0    -8.08735  -0.07595   3.48529 
 1                    0    -4.38056  -4.11223  -0.50948 
 1                    0    -3.26361  -4.87666  -1.6765 
 1                    0    -4.82032  -4.21406  -2.23999 
 1                    0    -0.1428    5.16429   0.5242 
 1                    0    -1.12713   5.4357    1.97459 
 1                    0    -1.58032   6.20032   0.43723 
 1                    0     2.8912    7.56073  -2.25503 
 1                    0     3.52048   8.16103  -0.71466 
 1                    0     2.07886   8.9048   -1.42995 
 6                    0     7.26916  -0.20141  -0.14931 
 1                    0     5.94219  -1.66171   0.67354 
 1                    0     8.26204  -0.13523  -0.61205 
 1                    0     7.26387   0.45227   0.73137 
 1                    0     6.53623   0.19226  -0.86128 
 1                    0    -1.72468  -5.82292  -0.07406 
 1                    0    -2.01763  -4.75595   1.30095 
 1                    0    -2.7143   -6.38954   1.28622 
 1                    0     6.96349   0.94973  -3.80442 
 1                    0     6.06661  -0.24036  -4.7644 
 1                    0     6.38344  -0.53941  -3.0511 
 1                    0    -5.4118   -2.4675    1.57627 
 1                    0    -4.95889  -2.87946   3.23739 
 1                    0    -4.653    -4.03494   1.92963 
 
eps=4.0 
