%nproc=28
%mem=32GB
#p PBE1PBE/6-311++G(d,p) SCRF=(CPCM,solvent=water,read) SCF=(Tight,MaxCycle=200)

x

0 1
 6                    0    -0.37575  -1.01811   0.51195 
 6                    0    -0.46636  -2.07865  -0.12232 
 1                    0    -0.42923  -3.14363  -0.27236 
 6                    0    -0.55022   0.36447   0.63727 
 1                    0    -1.40897   0.67081   1.23801 
 1                    0    -1.08767   0.46002  -0.65428 
 7                    0     0.5125    1.29697   0.6835 
 1                    0     1.31396   0.99434   0.13344 
 6                    0     0.88157   1.80954   2.00344 
 6                    0     2.18623   1.25669   2.54538 
 6                    0     2.67069  -0.04482   2.46334 
 6                    0     2.92393   2.26496   3.17041 
 6                    0     3.9242   -0.32962   3.00912 
 1                    0     2.08265  -0.82649   1.98404 
 1                    0     4.31493  -1.34238   2.97218 
 6                    0     4.67877   0.67991   3.61371 
 1                    0     5.65572   0.44608   4.027 
 6                    0     4.18196   1.9855    3.7003 
 1                    0     4.76907   2.76602   4.17751 
 6                    0     2.15037   3.56443   3.16123 
 1                    0     1.65763   3.70538   4.13203 
 1                    0     2.7813    4.44022   2.98432 
 6                    0     1.1124    3.33592   2.04565 
 1                    0     1.53101   3.64735   1.08195 
 1                    0     0.18013   3.88449   2.20662 
 1                    0     0.06512   1.54675   2.68964 
 6                    0     6.33153  -2.27254   1.08664 
 6                    0     6.52881  -3.18262  -0.12454 
 1                    0     7.59545  -3.29348  -0.35822 
 1                    0     6.10644  -4.17717   0.04377 
 1                    0     6.02953  -2.76637  -1.00718 
 6                    0     6.93489  -2.86131   2.36692 
 1                    0     8.01956  -2.97804   2.23076 
 1                    0     6.80667  -2.13008   3.17785 
 6                    0     6.31757  -4.19274   2.79175 
 1                    0     6.68482  -4.50299   3.77441 
 1                    0     5.22534  -4.11332   2.84808 
 1                    0     6.55369  -4.99203   2.08343 
 6                    0     6.66872  -0.21695  -2.97014 
 6                    0     5.39696   0.61795  -2.83793 
 1                    0     5.36363   1.09751  -1.85194 
 1                    0     5.41272   1.43281  -3.56933 
 6                    0     4.13234  -0.21468  -3.07464 
 1                    0     3.24441   0.42185  -3.15828 
 1                    0     4.2188   -0.77493  -4.0102 
 6                    0     3.82935  -1.23016  -1.99343 
 8                    0     3.55487  -2.41188  -2.28609 
 7                    0     3.84176  -0.81291  -0.72179 
 1                    0     4.11808   0.12188  -0.43143 
 1                    0     3.5916   -1.47996   0.00218 
 6                    0     2.73467   6.96391  -2.74256 
 6                    0     1.97685   6.3954   -1.538 
 1                    0     1.89356   7.16242  -0.75957 
 1                    0     0.95353   6.13349  -1.83515 
 6                    0     2.65658   5.17122  -0.97302 
 6                    0     3.54652   5.25469   0.10122 
 1                    0     3.72822   6.2187    0.57091 
 6                    0     4.21272   4.12847   0.58155 
 1                    0     4.90979   4.2068    1.41234 
 6                    0     3.97024   2.88779  -0.00328 
 8                    0     4.60704   1.74763   0.41515 
 1                    0     4.82605   1.80292   1.36324 
 6                    0     3.08258   2.77807  -1.07404 
 1                    0     2.87601   1.80243  -1.50799 
 6                    0     2.44708   3.91674  -1.55536 
 1                    0     1.75499   3.8283   -2.38875 
 6                    0    -0.75939   6.25463   0.76994 
 6                    0    -1.94581   5.30638   0.56851 
 1                    0    -1.91851   4.51884   1.33365 
 1                    0    -2.88437   5.8524    0.7159 
 6                    0    -1.94115   4.66698  -0.80058 
 6                    0    -2.91171   4.9775   -1.75663 
 1                    0    -3.69007   5.69735  -1.51268 
 6                    0    -2.90154   4.365    -3.01036 
 1                    0    -3.66981   4.61273  -3.73709 
 6                    0    -1.91502   3.43369  -3.32578 
 1                    0    -1.9152    2.94498  -4.29538 
 6                    0    -0.93638   3.12028  -2.38221 
 1                    0    -0.1904    2.35867  -2.59535 
 6                    0    -0.94939   3.73631  -1.13311 
 1                    0    -0.20034   3.45364  -0.39618 
 6                    0    -7.0764   -0.19883   3.28491 
 6                    0    -7.17588   0.52164   1.94716 
 1                    0    -6.18605   0.86404   1.63382 
 1                    0    -7.8353    1.39235   2.01416 
 16                   0    -7.81413  -0.61077   0.66812 
 6                    0    -7.30872   0.29504  -0.84208 
 1                    0    -7.70822   1.31047  -0.79703 
 1                    0    -7.82225  -0.22187  -1.65738 
 6                    0    -5.81747   0.2843   -1.07392 
 6                    0    -5.22921  -0.91191  -1.48387 
 6                    0    -3.8547   -1.00611  -1.71624 
 1                    0    -5.86701  -1.7789   -1.6179 
 6                    0    -5.02086   1.43035  -0.87892 
 6                    0    -5.60324   2.76872  -0.49177 
 1                    0    -6.18258   3.19977  -1.31656 
 1                    0    -6.27018   2.70204   0.37305 
 1                    0    -4.8014    3.47097  -0.25013 
 6                    0    -3.64998   1.32295  -1.09361 
 1                    0    -3.00597   2.18633  -0.9458 
 6                    0    -3.05493   0.12976  -1.50399 
 7                    0    -1.66842   0.10658  -1.73375 
 6                    0    -1.13807  -1.0763   -2.06635 
 6                    0     0.29328  -1.06701  -2.45378 
 8                    0     1.02573  -0.10936  -2.24264 
 7                    0     0.72266  -2.23998  -3.01145 
 1                    0     1.72869  -2.35353  -3.15201 
 6                    0    -0.07711  -3.36019  -3.29938 
 8                    0     0.44946  -4.33489  -3.80844 
 7                    0    -1.42033  -3.31502  -3.0019 
 6                    0    -1.92976  -2.24453  -2.44761 
 7                    0    -3.26838  -2.18321  -2.20361 
 6                    0    -4.13017  -3.31332  -2.54164 
 6                    0    -4.59747  -3.37798   1.86192 
 6                    0    -3.22963  -2.74939   1.58589 
 1                    0    -2.42653  -3.44962   1.84948 
 1                    0    -3.13014  -2.56393   0.50772 
 6                    0    -3.02016  -1.44323   2.31215 
 6                    0    -3.76325  -0.3159    1.94718 
 1                    0    -4.49071  -0.40615   1.1419 
 6                    0    -3.57436   0.91564   2.566 
 1                    0    -4.13221   1.79697   2.25911 
 6                    0    -2.6173    1.03834   3.57571 
 8                    0    -2.42786   2.27577   4.11866 
 1                    0    -1.76246   2.21989   4.82103 
 6                    0    -1.8762   -0.07764   3.96749 
 1                    0    -1.12803   0.01617   4.75136 
 6                    0    -2.08163  -1.30223   3.33502 
 1                    0    -1.47839  -2.15818   3.62842 
 6                    0    -2.67028  -5.65169  -0.5111 
 6                    0    -1.67207  -6.22652   0.4971 
 1                    0    -2.06708  -6.11077   1.51333 
 1                    0    -1.56642  -7.30539   0.3265 
 6                    0    -0.31927  -5.55472   0.41475 
 6                    0     0.29701  -5.00948   1.54592 
 1                    0    -0.19788  -5.08985   2.51145 
 6                    0     1.52135  -4.3499    1.46437 
 1                    0     1.98495  -3.91301   2.34405 
 6                    0     2.15709  -4.22315   0.22893 
 8                    0     3.34463  -3.5617    0.16538 
 1                    0     3.53625  -3.36234  -0.78501 
 6                    0     1.5678   -4.77432  -0.91161 
 1                    0     2.05284  -4.67311  -1.87866 
 6                    0     0.34414  -5.42847  -0.81193 
 1                    0    -0.10076  -5.82199  -1.72223 
 1                    0    -6.72105   0.49319   4.05379 
 1                    0    -6.36969  -1.03181   3.22233 
 1                    0    -8.04862  -0.58962   3.59968 
 1                    0    -4.6538   -3.65786  -1.64517 
 1                    0    -3.50453  -4.11046  -2.93159 
 1                    0    -4.85954  -3.00609  -3.29571 
 1                    0     0.1898    5.72692   0.62122 
 1                    0    -0.76017   6.67875   1.77882 
 1                    0    -0.79841   7.07777   0.04911 
 1                    0     2.80799   6.21699  -3.53933 
 1                    0     3.75171   7.25116  -2.45769 
 1                    0     2.22841   7.84566  -3.14592 
 6                    0     6.89997  -0.87861   0.82376 
 1                    0     5.24939  -2.18335   1.24718 
 1                    0     7.98162  -0.93195   0.64676 
 1                    0     6.73155  -0.21485   1.68032 
 1                    0     6.43629  -0.41574  -0.05341 
 1                    0    -2.34345  -5.82452  -1.54077 
 1                    0    -2.76082  -4.56748  -0.37917 
 1                    0    -3.66129  -6.10057  -0.38889 
 1                    0     7.56034   0.38406  -2.77021 
 1                    0     6.75543  -0.63144  -3.97973 
 1                    0     6.66889  -1.05608  -2.26601 
 1                    0    -5.40307  -2.71249   1.52994 
 1                    0    -4.73303  -3.56636   2.93179 
 1                    0    -4.70435  -4.32927   1.32975 
 
eps=4.0 
