%nproc=28
%mem=32GB
#p PBE1PBE/6-311++G(d,p) SCRF=(CPCM,solvent=water,read) SCF=(Tight,MaxCycle=200)

x

0 1
 6                    0    -0.86118  -0.49629  -0.08383 
 6                    0    -1.2287   -1.67085  -0.5711 
 1                    0    -1.09559  -2.66043  -0.14505 
 6                    0    -0.23952  -0.08529   1.10841 
 1                    0    -0.81174   0.01781   2.03183 
 1                    0    -1.25211   0.24108  -1.05638 
 7                    0     1.00101   0.32427   1.1669 
 1                    0     1.58031   0.21991   0.32852 
 6                    0     1.58362   1.01018   2.315 
 6                    0     2.98121   0.53771   2.64437 
 6                    0     3.48121  -0.75997   2.64948 
 6                    0     3.77714   1.62908   2.99684 
 6                    0     4.81592  -0.95602   3.00628 
 1                    0     2.8522   -1.60856   2.3846 
 1                    0     5.22818  -1.95982   3.02319 
 6                    0     5.62472   0.13141   3.35064 
 1                    0     6.6618   -0.03766   3.62395 
 6                    0     5.10843   1.43042   3.35347 
 1                    0     5.73906   2.27194   3.62698 
 6                    0     2.98554   2.91518   2.92948 
 1                    0     2.67501   3.21705   3.93727 
 1                    0     3.55558   3.74086   2.49445 
 6                    0     1.76763   2.52452   2.06842 
 1                    0     2.00974   2.67689   1.00886 
 1                    0     0.85747   3.08762   2.29582 
 1                    0     0.90285   0.83001   3.15672 
 6                    0     5.50558  -3.51791   0.68375 
 6                    0     5.03711  -4.48158  -0.40642 
 1                    0     5.89897  -4.93518  -0.91206 
 1                    0     4.41594  -5.28426   0.00111 
 1                    0     4.43919  -3.96249  -1.1632 
 6                    0     6.28603  -4.24718   1.78436 
 1                    0     7.12831  -4.78294   1.32435 
 1                    0     6.73547  -3.50339   2.45694 
 6                    0     5.43517  -5.21515   2.60458 
 1                    0     6.00791  -5.64173   3.43311 
 1                    0     4.56308  -4.70081   3.02599 
 1                    0     5.06596  -6.04537   1.99572 
 6                    0     5.43621  -1.96038  -3.53117 
 6                    0     4.61189  -0.71073  -3.22982 
 1                    0     4.97338  -0.2313   -2.31031 
 1                    0     4.75449   0.02472  -4.02839 
 6                    0     3.11064  -1.01393  -3.12513 
 1                    0     2.52777  -0.08729  -3.07513 
 1                    0     2.7633   -1.56145  -4.00337 
 6                    0     2.75303  -1.85086  -1.91532 
 8                    0     2.26304  -2.98114  -2.00834 
 7                    0     2.9908   -1.27942  -0.69907 
 1                    0     3.69767  -0.55209  -0.5954 
 1                    0     2.86831  -1.88988   0.10629 
 6                    0     4.81752   6.69175  -2.26169 
 6                    0     3.77745   6.13854  -1.28154 
 1                    0     3.7394    6.77498  -0.38907 
 1                    0     2.78274   6.17514  -1.74043 
 6                    0     4.08011   4.71445  -0.88182 
 6                    0     5.08221   4.42398   0.04933 
 1                    0     5.62532   5.23908   0.52289 
 6                    0     5.40683   3.11157   0.38109 
 1                    0     6.19383   2.89963   1.09969 
 6                    0     4.70975   2.0615   -0.21621 
 8                    0     4.98616   0.74675   0.05858 
 1                    0     5.44232   0.66403   0.91508 
 6                    0     3.70891   2.32795  -1.14714 
 1                    0     3.15897   1.50778  -1.60219 
 6                    0     3.40319   3.64559  -1.47347 
 1                    0     2.61551   3.8415   -2.19625 
 6                    0     0.77038   5.75608   0.59774 
 6                    0    -0.42529   4.95176   0.07592 
 1                    0    -0.73744   4.2327    0.84018 
 1                    0    -1.27319   5.62968  -0.08369 
 6                    0    -0.11012   4.21614  -1.20403 
 6                    0     0.07684   4.90885  -2.40639 
 1                    0    -0.03644   5.99118  -2.42226 
 6                    0     0.39551   4.22759  -3.57908 
 1                    0     0.52976   4.77965  -4.5048 
 6                    0     0.53506   2.83823  -3.56749 
 1                    0     0.77475   2.3045   -4.48235 
 6                    0     0.34345   2.13315  -2.38067 
 1                    0     0.39664   1.04647  -2.38096 
 6                    0     0.023     2.82589  -1.21208 
 1                    0    -0.15568   2.27999  -0.28701 
 6                    0    -6.10953   2.32078   3.20176 
 6                    0    -6.30073   2.67275   1.73289 
 1                    0    -5.36972   2.49864   1.1862 
 1                    0    -6.58224   3.72423   1.61566 
 16                   0    -7.58523   1.62404   0.97675 
 6                    0    -7.19776   1.88887  -0.80206 
 1                    0    -7.32924   2.94944  -1.02937 
 1                    0    -7.98729   1.34328  -1.32722 
 6                    0    -5.83758   1.39351  -1.21627 
 6                    0    -5.63511   0.01662  -1.3533 
 6                    0    -4.39595  -0.51374  -1.70322 
 1                    0    -6.47787  -0.64271  -1.16656 
 6                    0    -4.76302   2.26759  -1.46884 
 6                    0    -4.91416   3.77011  -1.40455 
 1                    0    -5.59944   4.13602  -2.17749 
 1                    0    -5.30632   4.10835  -0.44018 
 1                    0    -3.9464    4.25459  -1.56099 
 6                    0    -3.52879   1.72904  -1.81755 
 1                    0    -2.68198   2.38418  -2.01262 
 6                    0    -3.29607   0.34661  -1.92744 
 7                    0    -2.03555  -0.0947   -2.23072 
 6                    0    -1.81596  -1.4932   -2.01673 
 6                    0    -0.64997  -1.96405  -2.88881 
 8                    0     0.20674  -1.21347  -3.30799 
 7                    0    -0.5832   -3.3225   -3.03078 
 1                    0     0.29361  -3.71568  -3.35999 
 6                    0    -1.63126  -4.21673  -2.75232 
 8                    0    -1.41902  -5.41254  -2.85845 
 7                    0    -2.8639   -3.70143  -2.42481 
 6                    0    -2.99502  -2.42676  -2.15847 
 7                    0    -4.21431  -1.90801  -1.90897 
 6                    0    -5.39995  -2.7585   -1.96576 
 6                    0    -5.29949  -1.52481   2.12041 
 6                    0    -3.80125  -1.51491   2.42751 
 1                    0    -3.60374  -2.12267   3.31828 
 1                    0    -3.25468  -1.99056   1.59973 
 6                    0    -3.23293  -0.13178   2.64037 
 6                    0    -3.30129   0.83203   1.62537 
 1                    0    -3.80177   0.59448   0.68841 
 6                    0    -2.71772   2.08571   1.77187 
 1                    0    -2.76956   2.81815   0.96929 
 6                    0    -2.06225   2.40919   2.96357 
 8                    0    -1.51145   3.65378   3.06863 
 1                    0    -1.12914   3.76468   3.95253 
 6                    0    -1.99006   1.46945   3.99233 
 1                    0    -1.48477   1.71962   4.9224 
 6                    0    -2.57536   0.21355   3.82319 
 1                    0    -2.50523  -0.51364   4.62839 
 6                    0    -4.21235  -4.64314   0.59107 
 6                    0    -3.28638  -5.01495   1.75173 
 1                    0    -3.5962   -4.48171   2.65826 
 1                    0    -3.39431  -6.08487   1.97063 
 6                    0    -1.83631  -4.69795   1.46181 
 6                    0    -1.07407  -3.9015    2.32093 
 1                    0    -1.52847  -3.50775   3.22742 
 6                    0     0.25501  -3.59033   2.03925 
 1                    0     0.83601  -2.96414   2.71036 
 6                    0     0.84494  -4.07396   0.87279 
 8                    0     2.14533  -3.75035   0.60806 
 1                    0     2.26656  -3.76642  -0.37185 
 6                    0     0.10492  -4.88051   0.00413 
 1                    0     0.55467  -5.24863  -0.91464 
 6                    0    -1.2191   -5.18434   0.30357 
 1                    0    -1.77865  -5.79481  -0.39991 
 1                    0    -5.34828   2.97243   3.6421 
 1                    0    -5.77038   1.28623   3.30757 
 1                    0    -7.03692   2.44504   3.76919 
 1                    0    -5.90347  -2.76029  -0.99477 
 1                    0    -5.08611  -3.76812  -2.21449 
 1                    0    -6.08504  -2.37542  -2.72681 
 1                    0     1.65467   5.11598   0.69989 
 1                    0     0.54586   6.19873   1.57337 
 1                    0     1.029     6.56635  -0.09156 
 1                    0     4.8476    6.08486  -3.17185 
 1                    0     5.81738   6.67698  -1.81612 
 1                    0     4.58461   7.72278  -2.54331 
 6                    0     6.34325  -2.3874    0.08768 
 1                    0     4.60763  -3.07882   1.14409 
 1                    0     7.23236  -2.78951  -0.41399 
 1                    0     6.68278  -1.69201   0.86504 
 1                    0     5.77269  -1.81244  -0.64971 
 1                    0    -3.9695   -5.20652  -0.31441 
 1                    0    -4.10621  -3.58099   0.34233 
 1                    0    -5.25979  -4.83682   0.84472 
 1                    0     6.50359  -1.72717  -3.58192 
 1                    0     5.13542  -2.39702  -4.4889 
 1                    0     5.30056  -2.72754  -2.76152 
 1                    0    -5.52469  -0.92701   1.23044 
 1                    0    -5.87255  -1.10682   2.95437 
 1                    0    -5.65182  -2.5465    1.94445 
 
eps=4.0
