%chk=1.chk
%nproc=28
%mem=32GB
#p PBE1PBE/6-311++G(d,p) SCRF=(CPCM,solvent=water,read) SCF=(Tight,MaxCycle=200)

x

0 1
 C     0.764763    -0.592478     0.821578
 C     2.108812    -1.116313     0.560575
 H     2.543635    -0.860690    -0.409129
 C     0.135392     0.120615    -0.126573
 H     0.638450     0.331400    -1.072662
 H     0.372883    -0.727416     1.823209
 N    -1.134070     0.674644    -0.062623
 C    -1.350717     1.900645    -0.820811
 H    -0.937554     1.770437    -1.826207
 H    -0.859717     2.756224    -0.344492
 H    -2.419699     2.102566    -0.908102
 C    -2.120794     0.262866     0.811918
 C    -3.289334     0.912056     1.169396
 C    -4.021432     0.007616     2.005914
 H    -3.571414     1.919261     0.895058
 C    -3.241408    -1.171889     2.130245
 C    -5.279713     0.049688     2.628605
 C    -3.671496    -2.290028     2.844920
 N    -2.093429    -0.984358     1.394707
 C    -4.929051    -2.224205     3.435984
 H    -3.058969    -3.184190     2.901203
 C    -5.722459    -1.064549     3.329801
 H    -5.303761    -3.079995     3.988176
 H    -6.699097    -1.045782     3.803196
 H    -1.380763    -1.684307     1.234789
 H    -5.905150     0.933901     2.540581
 C    -6.020793     1.245395    -1.643430
 C    -5.239095     1.222134    -2.957241
 H    -4.799960     2.217299    -3.124328
 C    -4.100013     0.206737    -2.866770
 H    -4.513926    -0.807846    -2.803886
 H    -3.429793     0.251913    -3.731603
 H    -3.493675     0.387966    -1.968737
 C    -6.181178     0.915413    -4.126639
 H    -6.629650    -0.072471    -3.954247
 H    -7.005355     1.640756    -4.111857
 C    -5.506369     0.947203    -5.496464
 H    -4.765366     0.148793    -5.599020
 H    -6.238589     0.821998    -6.299469
 H    -4.993467     1.902741    -5.656838
 C    -5.088696    -5.413479    -1.136468
 C    -5.824598    -4.926639     0.109281
 H    -6.366767    -5.756901     0.573182
 H    -5.104052    -4.569650     0.855602
 C    -6.831827    -3.810522    -0.211307
 H    -7.597827    -4.170697    -0.902486
 H    -7.324568    -3.471006     0.707590
 C    -6.147136    -2.634096    -0.877341
 O    -6.326417    -2.323426    -2.041935
 N    -5.215410    -1.991454    -0.081255
 H    -5.384367    -2.013295     0.922867
 H    -4.923497    -1.073390    -0.412225
 C    -6.175798     5.446107     1.540376
 C    -5.510682     4.175392     1.001460
 H    -5.192396     3.548812     1.845155
 H    -6.239699     3.588560     0.431537
 C    -4.318066     4.480098     0.125373
 C    -3.123945     4.949509     0.687330
 H    -3.056574     5.086228     1.764049
 C    -2.016958     5.244206    -0.097038
 H    -1.087130     5.586004     0.347852
 C    -2.093807     5.067795    -1.478298
 O    -0.955180     5.327214    -2.203653
 H    -1.128357     5.221893    -3.152023
 C    -3.273197     4.627050    -2.068918
 H    -3.333479     4.497459    -3.147056
 C    -4.374766     4.339858    -1.261548
 H    -5.295787     3.996119    -1.725048
 C    -1.553863     3.181551     3.226780
 C    -0.579639     2.119242     3.683944
 C     0.770517     2.426093     3.872527
 H     1.110358     3.447366     3.715671
 C     1.682313     1.445858     4.262304
 H     2.723335     1.714546     4.423325
 C     1.258977     0.133370     4.456884
 H     1.969075    -0.640902     4.727608
 C    -0.088259    -0.182037     4.286496
 H    -0.426202    -1.204992     4.424861
 C    -0.997185     0.802853     3.909173
 H    -2.044241     0.540078     3.778905
 C     7.350281     3.649679    -2.091970
 C     7.392506     2.874154    -0.781255
 H     6.400640     2.474469    -0.538910
 H     7.713722     3.524098     0.038359
 S     8.565357     1.487248    -0.926988
 C     8.325387     0.688666     0.701118
 H     8.667637     1.371086     1.481336
 H     9.011846    -0.162862     0.688519
 C     6.915822     0.215912     0.965756
 C     6.436209    -0.890401     0.252918
 C     5.159683    -1.403204     0.480860
 H     7.092576    -1.347148    -0.480408
 C     6.105582     0.839025     1.927227
 C     6.566247     2.026270     2.736768
 H     5.759207     2.380695     3.382051
 H     7.417627     1.771678     3.376796
 H     6.874202     2.859950     2.098355
 C     4.830559     0.313364     2.148119
 H     4.158232     0.760139     2.874493
 C     4.355254    -0.776799     1.440756
 N     3.017968    -1.187706     1.688403
 C     2.622327    -2.457476     1.102098
 C     1.669070    -3.290283     1.902583
 O     0.977539    -2.854612     2.800284
 N     1.595152    -4.588616     1.470577
 H     0.875019    -5.172372     1.883632
 C     2.271286    -5.130968     0.365379
 O     1.915325    -6.207112    -0.070497
 N     3.348022    -4.433112    -0.146132
 C     3.567170    -3.211602     0.241190
 N     4.683041    -2.559936    -0.190027
 C     5.569884    -3.214112    -1.149216
 C     5.613665     0.371873    -3.095957
 C     4.144115    -0.003379    -2.901158
 H     3.711970    -0.306280    -3.861183
 H     4.078893    -0.883644    -2.243078
 C     3.325075     1.125724    -2.320847
 C     2.318112     1.753747    -3.055320
 H     2.103231     1.415203    -4.066520
 C     1.584038     2.812698    -2.522540
 H     0.807084     3.294716    -3.110314
 C     1.843123     3.258728    -1.225102
 O     1.158251     4.285395    -0.657850
 H     0.534014     4.664569    -1.307969
 C     2.839796     2.633432    -0.468587
 H     3.026443     2.975674     0.544958
 C     3.573104     1.591936    -1.022518
 H     4.357291     1.122993    -0.429595
 C     2.569598    -3.024850    -3.544367
 C     1.343587    -2.119621    -3.484798
 H     1.651160    -1.108267    -3.180892
 H     0.922307    -2.008931    -4.492276
 C     0.253777    -2.583671    -2.540719
 C    -0.920854    -1.832909    -2.420979
 H    -1.043623    -0.928903    -3.017052
 C    -1.930329    -2.201732    -1.543284
 H    -2.825278    -1.595821    -1.444741
 C    -1.785149    -3.342531    -0.749647
 O    -2.726671    -3.702119     0.167303
 H    -3.505117    -3.111554     0.078513
 C    -0.637061    -4.121198    -0.873174
 H    -0.538040    -5.028698    -0.285159
 C     0.366110    -3.738216    -1.763600
 H     1.241519    -4.373784    -1.858317
 H     5.863448    -2.489818    -1.913447
 H     5.033082    -4.039771    -1.607137
 H     6.462612    -3.597125    -0.645480
 H    -1.746826     3.045662     2.154052
 H    -1.081103     4.165602     3.331582
 C    -2.888012     3.164186     3.976591
 H    -3.449632     2.248070     3.767225
 H    -3.515759     4.011567     3.680186
 H    -2.728946     3.226694     5.057772
 H    -5.362987     1.467105    -0.792213
 H    -6.489630     0.267593    -1.474707
 H    -6.818794     1.997484    -1.661746
 H    -4.531344    -4.600319    -1.614333
 H    -5.795663    -5.811278    -1.872216
 H    -4.371655    -6.199498    -0.886060
 H     3.036958    -3.117734    -2.557393
 H     3.315962    -2.623803    -4.235575
 H     2.304568    -4.032280    -3.880852
 H     5.705154     1.208282    -3.796806
 H     6.188970    -0.470215    -3.495779
 H     6.074095     0.669284    -2.148017
 H    -5.468835     6.030730     2.137583
 H    -7.033903     5.201619     2.172752
 H    -6.522721     6.077924     0.717155
 H     6.639339     4.476266    -2.011933
 H     7.033672     3.005491    -2.916848
 H     8.332309     4.064418    -2.336388

eps=4.0


