%chk=1.chk
%nproc=28
%mem=32GB
#p PBE1PBE/6-311++G(d,p) SCRF=(CPCM,solvent=water,read) SCF=(Tight,MaxCycle=200)

x

0 1
 C     0.722030    -0.039341     0.478482
 C     2.100516     0.119639     0.633141
 H     2.527517     1.109842     0.496029
 C    -0.004018     1.107340     0.275684
 H     0.522044     2.042763     0.080999
 H     0.272973    -1.019445     0.521514
 N    -1.343647     1.240935     0.298954
 C    -1.906142     2.434628    -0.331589
 H    -1.264274     3.291210    -0.108357
 H    -2.895033     2.629334     0.073816
 H    -1.973380     2.300034    -1.415745
 C    -2.236390     0.361402     0.917269
 C    -3.615681     0.405309     0.863167
 C    -4.089174    -0.629028     1.730615
 H    -4.215871     1.097254     0.291541
 C    -2.944018    -1.276376     2.258187
 C    -5.364902    -1.072530     2.125229
 C    -3.031226    -2.369210     3.124783
 N    -1.828366    -0.644162     1.759572
 C    -4.300733    -2.799755     3.477323
 H    -2.133139    -2.855299     3.492067
 C    -5.456583    -2.151585     2.990419
 H    -4.408803    -3.646150     4.147806
 H    -6.433765    -2.505888     3.304143
 H    -0.873539    -0.862866     2.054846
 H    -6.258943    -0.581099     1.749798
 C    -6.288143    -0.112437    -1.915245
 C    -5.479538     0.366287    -3.122138
 H    -5.626080     1.451678    -3.240217
 C    -3.990072     0.097023    -2.901700
 H    -3.815748    -0.984743    -2.848631
 H    -3.373246     0.510416    -3.706760
 H    -3.647865     0.539267    -1.957421
 C    -5.997097    -0.316968    -4.393747
 H    -5.861256    -1.400761    -4.276616
 H    -7.078432    -0.142341    -4.469072
 C    -5.320819     0.157289    -5.678462
 H    -4.262918    -0.120292    -5.703553
 H    -5.797237    -0.282827    -6.559368
 H    -5.383671     1.247614    -5.773594
 C    -3.018644    -6.030619    -1.866693
 C    -4.156222    -6.129049    -0.854464
 H    -4.478056    -7.170598    -0.751610
 H    -3.802037    -5.806496     0.130299
 C    -5.379367    -5.289815    -1.263314
 H    -5.741888    -5.604792    -2.245237
 H    -6.187953    -5.422263    -0.536159
 C    -5.023199    -3.822454    -1.373906
 O    -4.817607    -3.264227    -2.439185
 N    -4.844018    -3.162490    -0.173798
 H    -5.322583    -3.504555     0.653538
 H    -4.817635    -2.148218    -0.233755
 C    -7.298364     3.754934     2.046957
 C    -6.270768     2.861764     1.345886
 H    -5.691165     2.308353     2.096907
 H    -6.790112     2.109436     0.740023
 C    -5.324320     3.638451     0.459367
 C    -4.424310     4.564915     1.003632
 H    -4.411102     4.732188     2.078689
 C    -3.527004     5.262032     0.203053
 H    -2.812990     5.959329     0.631055
 C    -3.518425     5.034105    -1.173336
 O    -2.572900     5.701513    -1.916464
 H    -2.722907     5.548887    -2.862581
 C    -4.417007     4.138893    -1.745270
 H    -4.409120     3.962441    -2.818312
 C    -5.312658     3.453658    -0.924747
 H    -6.010458     2.751602    -1.375509
 C    -2.000297     3.043696     3.162651
 C    -0.574303     2.541682     3.268108
 C     0.467828     3.320620     2.745457
 H     0.229010     4.258396     2.244047
 C     1.795256     2.921175     2.877811
 H     2.592272     3.552272     2.491791
 C     2.104541     1.723587     3.524541
 H     3.138896     1.418376     3.656287
 C     1.077432     0.920230     4.007663
 H     1.301587    -0.032555     4.473513
 C    -0.249760     1.330153     3.883448
 H    -1.036811     0.695672     4.280933
 C     8.750391     2.200142    -3.044533
 C     8.605545     1.893336    -1.559630
 H     7.557357     1.964131    -1.257119
 H     9.189179     2.596014    -0.956536
 S     9.182572     0.200036    -1.212607
 C     8.600513     0.029360     0.513409
 H     8.972815     0.878068     1.091518
 H     9.104250    -0.865514     0.889159
 C     7.104438    -0.129241     0.645067
 C     6.540480    -1.342243     0.240788
 C     5.174297    -1.593206     0.364232
 H     7.194493    -2.109293    -0.160909
 C     6.293503     0.879304     1.189094
 C     6.848868     2.192105     1.687544
 H     6.038057     2.852050     2.006892
 H     7.514650     2.046312     2.544922
 H     7.421095     2.717371     0.916339
 C     4.922068     0.632704     1.298456
 H     4.274726     1.392345     1.727882
 C     4.369445    -0.570936     0.888670
 N     2.964201    -0.833276     0.935329
 C     2.619950    -2.184647     1.224057
 C     1.521942    -2.555659     2.056040
 O     0.735930    -1.804790     2.662470
 N     1.369848    -3.926921     2.151620
 H     0.555522    -4.249758     2.661913
 C     2.088692    -4.905693     1.455739
 O     1.712221    -6.071790     1.519050
 N     3.186212    -4.495338     0.754659
 C     3.430410    -3.199132     0.683034
 N     4.585708    -2.809056     0.009177
 C     5.378866    -3.808642    -0.689711
 C     5.097509     1.921964    -2.140437
 C     3.620860     1.544575    -2.240681
 H     3.387902     1.244628    -3.268609
 H     3.449569     0.646680    -1.627206
 C     2.653613     2.632366    -1.826490
 C     1.486215     2.862954    -2.560832
 H     1.296783     2.275637    -3.456297
 C     0.556155     3.825936    -2.176653
 H    -0.347091     3.982719    -2.761067
 C     0.779426     4.589928    -1.028573
 O    -0.108440     5.509016    -0.568671
 H    -0.866725     5.594206    -1.181182
 C     1.948335     4.389775    -0.291130
 H     2.122230     5.003068     0.587728
 C     2.866887     3.423761    -0.690198
 H     3.770145     3.289123    -0.097850
 C     2.885225    -1.734852    -3.084773
 C     1.455713    -1.201429    -3.063103
 H     1.460610    -0.164896    -2.695745
 H     1.067967    -1.153051    -4.089166
 C     0.496196    -1.989738    -2.195526
 C    -0.797206    -1.501330    -1.974669
 H    -1.110672    -0.577327    -2.460478
 C    -1.681518    -2.139740    -1.113416
 H    -2.667882    -1.720246    -0.931497
 C    -1.282604    -3.305548    -0.448771
 O    -2.077779    -3.947833     0.446368
 H    -2.975768    -3.558819     0.416545
 C    -0.022940    -3.842766    -0.705097
 H     0.255084    -4.776199    -0.224986
 C     0.856338    -3.178378    -1.557576
 H     1.844373    -3.605128    -1.706688
 H     5.880165    -3.329777    -1.533757
 H     4.706522    -4.583193    -1.050508
 H     6.125545    -4.270247    -0.033206
 H    -2.290837     3.079732     2.105771
 H    -2.020530     4.087439     3.502825
 C    -3.041061     2.237939     3.932775
 H    -3.113751     1.211540     3.558237
 H    -4.028076     2.699404     3.827385
 H    -2.801793     2.196295     5.000342
 H    -5.919032     0.327044    -0.980268
 H    -6.207904    -1.202848    -1.833407
 H    -7.349199     0.142671    -2.014083
 H    -2.702182    -4.993008    -2.012450
 H    -3.330363    -6.424383    -2.840112
 H    -2.146809    -6.597822    -1.529042
 H     3.305665    -1.775634    -2.071993
 H     3.529204    -1.095442    -3.695225
 H     2.927626    -2.745880    -3.502717
 H     5.339394     2.767091    -2.793014
 H     5.724015     1.069419    -2.425584
 H     5.366994     2.194060    -1.115221
 H    -6.804425     4.496239     2.682821
 H    -7.964676     3.160233     2.677746
 H    -7.906416     4.292874     1.313705
 H     8.421285     3.223004    -3.247921
 H     8.141543     1.517801    -3.644439
 H     9.791138     2.106883    -3.368204

eps=4.0


