%chk=1.chk
%nproc=28
%mem=32GB
#p PBE1PBE/6-311++G(d,p) SCRF=(CPCM,solvent=water,read) SCF=(Tight,MaxCycle=200)

x

0 1
 C     1.133695     0.268945    -0.709289
 C     1.597160     1.454161    -0.339568
 H     1.389914     2.010662     0.571547
 C     0.400785    -0.815050    -0.205487
 H     0.968413    -1.600202     0.285431
 H     1.743413     0.142132    -1.802502
 N    -0.863126    -1.130305    -0.406818
 C    -1.330768    -2.470913    -0.025826
 H    -0.481062    -3.072949     0.290247
 H    -1.794977    -2.930166    -0.898971
 H    -2.059472    -2.397974     0.784811
 C    -1.843995    -0.325449    -1.007574
 C    -3.185700    -0.632262    -1.093567
 C    -3.789732     0.446097    -1.808448
 H    -3.672525    -1.512661    -0.695842
 C    -2.756937     1.367523    -2.111662
 C    -5.111572     0.748531    -2.187436
 C    -2.996115     2.565970    -2.793913
 N    -1.580945     0.887090    -1.587359
 C    -4.305763     2.839062    -3.149963
 H    -2.180523     3.248825    -3.004983
 C    -5.355761     1.940685    -2.848004
 H    -4.533829     3.762253    -3.672872
 H    -6.368851     2.192924    -3.144580
 H    -0.663588     1.263592    -1.835253
 H    -5.920975     0.062171    -1.953530
 C    -5.894280    -0.308288     2.286110
 C    -4.862043    -0.772400     3.314358
 H    -4.975382    -1.857954     3.453965
 C    -3.445246    -0.488135     2.810000
 H    -3.263026     0.594118     2.832644
 H    -2.676826    -0.976834     3.418865
 H    -3.323277    -0.838523     1.777002
 C    -5.123759    -0.105129     4.669277
 H    -5.036681     0.981802     4.538518
 H    -6.161824    -0.306132     4.964133
 C    -4.183394    -0.573513     5.777974
 H    -3.150398    -0.269509     5.583515
 H    -4.473569    -0.154014     6.745538
 H    -4.199872    -1.666347     5.868442
 C    -3.417317     5.947279     1.424128
 C    -4.530511     5.419778     0.523107
 H    -5.175384     6.244002     0.201511
 H    -4.101425     4.979905    -0.384707
 C    -5.403156     4.374432     1.238043
 H    -5.804904     4.785035     2.167886
 H    -6.242354     4.079908     0.597600
 C    -4.598773     3.144417     1.603634
 O    -4.249839     2.878969     2.741801
 N    -4.200013     2.369358     0.529947
 H    -4.745444     2.424649    -0.327275
 H    -3.904063     1.422623     0.758360
 C    -5.882558    -5.064361    -1.870013
 C    -5.536183    -3.944451    -0.888852
 H    -5.255518    -3.046016    -1.458592
 H    -6.430773    -3.667111    -0.320441
 C    -4.436625    -4.292693     0.095242
 C    -3.354956    -5.113018    -0.248636
 H    -3.285078    -5.529698    -1.249739
 C    -2.353348    -5.419437     0.668048
 H    -1.514193    -6.051091     0.393085
 C    -2.424773    -4.905081     1.960648
 O    -1.404806    -5.226370     2.823650
 H    -1.603707    -4.900017     3.715249
 C    -3.491091    -4.092172     2.335504
 H    -3.547784    -3.692770     3.345886
 C    -4.481815    -3.795950     1.401671
 H    -5.319118    -3.170438     1.702077
 C    -3.193407    -3.198738    -3.654904
 C    -1.965405    -2.324585    -3.815211
 C    -0.727584    -2.799638    -3.362761
 H    -0.667329    -3.802129    -2.940819
 C     0.413786    -2.006012    -3.428256
 H     1.358086    -2.386693    -3.044520
 C     0.344448    -0.719831    -3.967486
 H     1.223168    -0.081356    -3.986042
 C    -0.876503    -0.248017    -4.440201
 H    -0.945644     0.759073    -4.842105
 C    -2.021027    -1.041679    -4.364144
 H    -2.967575    -0.639319    -4.713359
 C     5.639075    -4.219619     2.356599
 C     6.160407    -3.836903     0.977868
 H     5.345543    -3.460760     0.352389
 H     6.610570    -4.697699     0.473310
 S     7.403310    -2.513021     1.119616
 C     7.442584    -1.944435    -0.623355
 H     7.665843    -2.804599    -1.258881
 H     8.309575    -1.278465    -0.667847
 C     6.200271    -1.219891    -1.077958
 C     5.941113     0.049487    -0.555541
 C     4.846736     0.803926    -0.968899
 H     6.629509     0.447016     0.184266
 C     5.322314    -1.749733    -2.041731
 C     5.552622    -3.102401    -2.674835
 H     4.717524    -3.365005    -3.328642
 H     6.465465    -3.110885    -3.280801
 H     5.654884    -3.895804    -1.926861
 C     4.226603    -0.988497    -2.442252
 H     3.548243    -1.376113    -3.199470
 C     3.948777     0.293046    -1.936078
 N     2.835825     0.974531    -2.377848
 C     2.455388     2.061962    -1.497773
 C     1.471496     2.948411    -2.269422
 O     0.513412     2.473924    -2.861496
 N     1.701983     4.285588    -2.215162
 H     1.006111     4.892523    -2.637589
 C     2.626047     4.922099    -1.353903
 O     2.513564     6.122213    -1.185323
 N     3.617502     4.165289    -0.796086
 C     3.613366     2.866097    -0.947602
 N     4.680131     2.147594    -0.543716
 C     5.794098     2.801500     0.137804
 C     4.685216     0.115542     3.185037
 C     3.398018     0.243054     2.365149
 H     2.689717     0.911206     2.870878
 H     3.630905     0.703946     1.397645
 C     2.742978    -1.092610     2.124923
 C     1.648838    -1.515830     2.882916
 H     1.239471    -0.855299     3.643859
 C     1.058275    -2.761248     2.676237
 H     0.194650    -3.066427     3.261111
 C     1.568418    -3.617876     1.696973
 O     1.010453    -4.827055     1.423859
 H     0.273683    -4.999703     2.043163
 C     2.659216    -3.207449     0.922598
 H     3.028359    -3.871211     0.145219
 C     3.235055    -1.958583     1.140762
 H     4.071223    -1.635225     0.521139
 C     3.754201     3.715740     2.834167
 C     2.388521     3.736207     3.527156
 H     2.292553     2.864125     4.184618
 H     2.328007     4.618476     4.177165
 C     1.240393     3.744334     2.542335
 C     0.183534     2.834862     2.628670
 H     0.172441     2.104506     3.435282
 C    -0.856269     2.826161     1.695743
 H    -1.662996     2.101633     1.775687
 C    -0.850235     3.750014     0.648598
 O    -1.803974     3.796071    -0.313853
 H    -2.535115     3.179761    -0.096087
 C     0.181211     4.689664     0.567727
 H     0.161774     5.426777    -0.228598
 C     1.212032     4.675813     1.495515
 H     2.009677     5.407077     1.391513
 H     5.972747     2.309419     1.098323
 H     5.532884     3.842392     0.302882
 H     6.695680     2.732015    -0.476904
 H    -3.312787    -3.423195    -2.583782
 H    -3.006877    -4.166993    -4.137845
 C    -4.493296    -2.602435    -4.183280
 H    -4.730358    -1.662245    -3.673339
 H    -5.325376    -3.294614    -4.025467
 H    -4.427885    -2.395630    -5.256192
 H    -5.701855    -0.744373     1.297013
 H    -5.858032     0.782781     2.188019
 H    -6.910670    -0.582399     2.588318
 H    -2.807850     5.131769     1.826991
 H    -3.836903     6.498224     2.272518
 H    -2.750264     6.617403     0.874798
 H     3.815857     2.871700     2.138452
 H     4.566019     3.627580     3.563040
 H     3.920997     4.626276     2.250990
 H     4.483559    -0.347481     4.156643
 H     5.138448     1.096878     3.361422
 H     5.413153    -0.510017     2.655608
 H    -5.053237    -5.277436    -2.552491
 H    -6.745180    -4.783132    -2.480318
 H    -6.125754    -5.988496    -1.336824
 H     4.897827    -5.019633     2.268861
 H     5.158803    -3.362076     2.837820
 H     6.449803    -4.572940     3.001016

eps=4.0

