%chk=1.chk
%nproc=28
%mem=32GB
#p PBE1PBE/6-311++G(d,p) SCRF=(CPCM,solvent=water,read) SCF=(Tight,MaxCycle=200)

x

0 1
 C    -2.630624     2.709453    -2.101366
 C    -3.623187     3.393685    -2.086748
 H    -4.511926     3.991619    -2.063584
 C    -1.430966     1.876143    -2.173807
 H    -0.589271     2.475785    -2.553290
 H    -1.595216     1.059928    -2.889835
 N    -1.120144     1.285508    -0.886080
 H    -1.383398     1.833897    -0.071831
 C    -0.047589     0.456449    -0.782790
 C     0.691606     0.049838    -1.860051
 C     1.685152    -0.984463    -1.750676
 H     0.489107     0.405121    -2.862032
 N     2.356859    -1.544492    -2.696216
 O     1.945080    -1.499495    -0.512735
 H     2.095142    -1.122572    -3.587015
 C     1.319302    -1.024797     0.603159
 C     1.750800    -1.550008     1.818118
 C     0.307601    -0.059373     0.539935
 C     1.164696    -1.101106     2.992816
 H     2.550914    -2.281096     1.823247
 C     0.149113    -0.141953     2.955535
 H     1.509783    -1.501657     3.940937
 C    -0.277387     0.373607     1.738588
 H    -0.309294     0.207686     3.875029
 H    -1.079784     1.105062     1.735826
 C     4.180309     4.371247    -1.056428
 C     4.922556     3.329000    -1.892288
 H     5.336502     3.827663    -2.781011
 C     6.074353     2.734330    -1.082358
 H     5.684301     2.125448    -0.255584
 H     6.716769     2.090199    -1.689819
 H     6.701610     3.523924    -0.654472
 C     3.968569     2.230276    -2.378065
 H     3.546886     1.713532    -1.499785
 H     3.131128     2.698253    -2.922072
 C     4.623423     1.201263    -3.296589
 H     3.889474     0.482962    -3.670515
 H     5.095524     1.693157    -4.154332
 H     5.391546     0.634315    -2.762046
 C     1.007819     5.302074     3.804039
 C     1.633874     3.919765     3.648697
 H     2.075841     3.592697     4.596127
 H     0.864059     3.180741     3.388754
 C     2.723696     3.905788     2.566819
 H     2.292886     4.202360     1.602848
 H     3.515744     4.615187     2.825512
 C     3.334867     2.524576     2.481291
 O     4.163793     2.143685     3.320825
 N     2.877514     1.739499     1.492377
 H     2.165827     2.072953     0.850497
 H     3.127120     0.754339     1.494093
 C     9.241526    -1.764159    -1.605711
 C     8.446483    -0.453989    -1.618578
 H     9.134039     0.393531    -1.518107
 H     7.947021    -0.342222    -2.589099
 C     7.418351    -0.402817    -0.513850
 C     7.678072     0.252205     0.691680
 H     8.630759     0.759656     0.827271
 C     6.739951     0.280232     1.721352
 H     6.950897     0.796990     2.653559
 C     5.510819    -0.360593     1.554513
 O     4.563981    -0.383859     2.535917
 H     4.581974     0.475124     3.030693
 C     5.229758    -1.016777     0.353012
 H     4.264927    -1.501529     0.226337
 C     6.180390    -1.036987    -0.661610
 H     5.944815    -1.545709    -1.595400
 C     4.044857    -5.308942    -1.844192
 C     4.185270    -4.118898    -0.889888
 H     5.246008    -3.879507    -0.750886
 H     3.719947    -3.234975    -1.347069
 C     3.557069    -4.361657     0.462822
 C     4.296758    -4.217942     1.639714
 H     5.341651    -3.922546     1.576948
 C     3.710461    -4.432704     2.888547
 H     4.303051    -4.309994     3.790353
 C     2.371188    -4.804038     2.976211
 H     1.912818    -4.974370     3.945834
 C     1.622567    -4.951250     1.807434
 H     0.575145    -5.235895     1.866201
 C     2.208260    -4.728112     0.564450
 H     1.616876    -4.819041    -0.343632
 C    -3.657006    -5.089668    -2.439910
 C    -3.825851    -5.107383    -0.926774
 H    -3.536429    -4.136279    -0.514491
 H    -3.196708    -5.879712    -0.473379
 S    -5.569658    -5.417852    -0.487658
 C    -5.527778    -4.999868     1.297076
 H    -4.928489    -5.738162     1.831126
 H    -6.563361    -5.104255     1.632365
 C    -5.033641    -3.594617     1.535083
 C    -5.824046    -2.546011     1.084959
 C    -5.367598    -1.224355     1.155274
 H    -6.778370    -2.777263     0.624953
 C    -3.764908    -3.351766     2.129579
 C    -2.884908    -4.474021     2.617276
 H    -1.953590    -4.073703     3.023826
 H    -3.373551    -5.060781     3.401452
 H    -2.627798    -5.160389     1.803129
 C    -3.330490    -2.044928     2.221362
 H    -2.357129    -1.800342     2.639663
 C    -4.096011    -0.976143     1.720942
 N    -3.568852     0.282299     1.764972
 C    -4.262605     1.246911     1.257775
 C    -3.678380     2.615498     1.301725
 O    -2.553313     2.848803     1.709219
 N    -4.530823     3.580347     0.853695
 H    -4.166459     4.527794     0.809672
 C    -5.756726     3.364905     0.185188
 O    -6.286361     4.320854    -0.351743
 N    -6.283381     2.098540     0.164215
 C    -5.589506     1.110013     0.667539
 N    -6.104396    -0.155771     0.670373
 C    -7.464159    -0.388768     0.174046
 C    -4.999065    -1.490194    -2.325247
 C    -3.702387    -0.705463    -2.108671
 H    -3.652917     0.102859    -2.847808
 H    -3.712870    -0.219670    -1.123090
 C    -2.475913    -1.580178    -2.211595
 C    -1.868918    -1.838309    -3.445431
 H    -2.277630    -1.385673    -4.347085
 C    -0.742847    -2.651572    -3.535276
 H    -0.257815    -2.833897    -4.490057
 C    -0.199710    -3.226208    -2.383405
 O     0.947757    -3.978560    -2.456756
 H     1.686706    -3.339542    -2.614284
 C    -0.806550    -2.997303    -1.148910
 H    -0.361470    -3.422036    -0.252064
 C    -1.930256    -2.178003    -1.074070
 H    -2.372425    -1.968003    -0.103061
 C    -3.771331     6.950775    -1.448687
 C    -2.459848     7.380360    -0.781998
 H    -2.041494     8.231189    -1.331508
 H    -2.664104     7.731606     0.235428
 C    -1.441692     6.265572    -0.736777
 C    -0.628868     5.997832    -1.842696
 H    -0.715864     6.618585    -2.731337
 C     0.294218     4.956542    -1.833824
 H     0.915923     4.763953    -2.705549
 C     0.411982     4.158020    -0.695795
 O     1.276758     3.098725    -0.621048
 H     1.810918     3.025129    -1.428784
 C    -0.388759     4.399928     0.415243
 H    -0.297954     3.759184     1.287782
 C    -1.305304     5.447437     0.386437
 H    -1.917604     5.628377     1.267543
 H    -7.433666    -1.078216    -0.671637
 H    -7.875381     0.565679    -0.139629
 H    -8.066754    -0.816460     0.977960
 H    -3.916253    -6.055200    -2.883996
 H    -2.615003    -4.860775    -2.684705
 H    -4.286764    -4.317888    -2.891554
 H    -5.868884    -0.827442    -2.264214
 H    -5.107668    -2.288338    -1.579807
 H    -5.002730    -1.957136    -3.315731
 H     4.536894    -5.096374    -2.798134
 H     2.992286    -5.524221    -2.051701
 H     4.499270    -6.208886    -1.417874
 H     9.977279    -1.790243    -2.415014
 H     8.571300    -2.621697    -1.724021
 H     9.770964    -1.882130    -0.655063
 H     3.349838     4.827662    -1.610078
 H     4.852178     5.177199    -0.744695
 H     3.772173     3.905393    -0.151797
 H     0.561048     5.636118     2.861253
 H     1.763400     6.038765     4.095925
 H     0.225452     5.298173     4.568087
 H    -3.583947     6.572064    -2.458944
 H    -4.467819     7.791206    -1.520855
 H    -4.267796     6.155253    -0.882173

eps=4.0




