%chk=1.chk
%nproc=28
%mem=32GB
#p PBE1PBE/6-311++G(d,p) SCRF=(CPCM,solvent=water,read) SCF=(Tight,MaxCycle=200)

x

0 1
 C     0.283487     1.086149    -0.651037
 C     0.092861     1.349295    -1.818130
 H    -0.075520     1.581732    -2.849025
 C     0.485596     0.816685     0.784801
 H    -0.328869     1.301577     1.331138
 H     1.402950     1.314660     1.107902
 N     0.501819    -0.588979     1.156509
 C    -0.654987    -1.332528     0.693512
 H    -1.549536    -0.756328     0.937254
 H    -0.705950    -2.299224     1.202789
 H    -0.642022    -1.510098    -0.391993
 C     1.721701    -1.236532     1.075688
 C     2.047931    -2.484073     0.590452
 C     3.452700    -2.664606     0.841820
 H     1.360322    -3.194339     0.149596
 C     3.915875    -1.477243     1.472432
 C     4.382145    -3.688580     0.589328
 C     5.245561    -1.293574     1.855651
 N     2.839971    -0.630917     1.599224
 C     6.133825    -2.330657     1.604314
 H     5.563637    -0.368641     2.327715
 C     5.704673    -3.513996     0.975067
 H     7.175463    -2.223542     1.892077
 H     6.424954    -4.303862     0.784894
 H     2.857998     0.261224     2.084295
 H     4.064392    -4.604339     0.100038
 C     3.287763    -3.756627    -5.188583
 C     2.332234    -3.667677    -4.000086
 H     1.604898    -4.487852    -4.075166
 C     3.089064    -3.838849    -2.681699
 H     3.786183    -3.005299    -2.517014
 H     2.413112    -3.871512    -1.821397
 H     3.684040    -4.761005    -2.683465
 C     1.537915    -2.356200    -4.041041
 H     2.237740    -1.507641    -4.042175
 H     1.001291    -2.307612    -4.997550
 C     0.547263    -2.206037    -2.890077
 H     1.064642    -2.092108    -1.932180
 H    -0.099465    -1.331007    -3.021713
 H    -0.096348    -3.090918    -2.808418
 C     6.486911     0.327900    -0.891096
 C     6.034052    -0.887204    -1.695388
 H     6.910424    -1.453534    -2.029003
 H     5.467788    -1.573211    -1.051031
 C     5.223933    -0.506631    -2.936061
 H     5.789739     0.172187    -3.580874
 H     5.012302    -1.401008    -3.537645
 C     3.878240     0.153952    -2.699753
 O     3.388942     0.932279    -3.503015
 N     3.213560    -0.168500    -1.534434
 H     3.462113    -1.031868    -1.054942
 H     2.213022    -0.000449    -1.582209
 C     0.854177    -3.536201     3.760653
 C     0.218067    -4.884956     3.399589
 H     0.696140    -5.673959     3.991339
 H    -0.840699    -4.876323     3.682979
 C     0.341866    -5.214359     1.930912
 C    -0.692477    -4.938460     1.032448
 H    -1.633067    -4.532974     1.397158
 C    -0.554658    -5.178558    -0.331678
 H    -1.354143    -4.943441    -1.028749
 C     0.627038    -5.734240    -0.821022
 O     0.702282    -5.975906    -2.160709
 H     1.597194    -6.277692    -2.381490
 C     1.664592    -6.036003     0.060377
 H     2.581538    -6.483540    -0.317175
 C     1.517868    -5.766493     1.418356
 H     2.342636    -5.988181     2.092082
 C    -0.702654    -0.037139     4.541256
 C     0.706684     0.487905     4.408059
 C     0.953009     1.699165     3.750322
 H     0.136225     2.254162     3.292831
 C     2.249013     2.193292     3.621580
 H     2.407710     3.114232     3.068604
 C     3.325738     1.493787     4.174039
 H     4.337158     1.877539     4.073958
 C     3.091882     0.291427     4.840238
 H     3.921396    -0.267513     5.264325
 C     1.792557    -0.204380     4.951480
 H     1.619616    -1.145373     5.468391
 C    -6.871057    -2.625913    -1.325601
 C    -7.047357    -1.792552    -0.065328
 H    -6.075356    -1.616212     0.399884
 H    -7.694251    -2.296684     0.658989
 S    -7.778623    -0.173390    -0.471206
 C    -7.336129     0.729987     1.053719
 H    -7.607832     0.117093     1.915794
 H    -7.984283     1.610482     1.064375
 C    -5.892043     1.176873     1.106447
 C    -5.481490     2.114749     0.165802
 C    -4.179023     2.626999     0.176281
 H    -6.195909     2.442093    -0.581544
 C    -4.985587     0.677884     2.077772
 C    -5.390959    -0.355307     3.100545
 H    -4.516222    -0.691518     3.662219
 H    -6.110243     0.058090     3.814944
 H    -5.855381    -1.233920     2.640773
 C    -3.705017     1.204095     2.094587
 H    -2.943228     0.849792     2.784106
 C    -3.295056     2.190236     1.182877
 N    -2.029391     2.701346     1.288649
 C    -1.625332     3.527234     0.384049
 C    -0.218516     4.034580     0.460310
 O     0.535982     3.767350     1.374414
 N     0.136241     4.811707    -0.607051
 H     1.112579     5.107026    -0.652020
 C    -0.664895     5.131730    -1.718712
 O    -0.176451     5.775965    -2.626936
 N    -1.979852     4.713225    -1.732175
 C    -2.422405     3.960724    -0.762581
 N    -3.724033     3.538390    -0.762659
 C    -4.642530     4.015503    -1.798207
 C    -4.660975     0.648359    -3.519140
 C    -3.279824     0.264615    -2.974301
 H    -2.560872     0.197014    -3.798685
 H    -2.915496     1.050028    -2.299236
 C    -3.337851    -1.049367    -2.234854
 C    -3.260243    -2.272071    -2.908665
 H    -3.088831    -2.282227    -3.982809
 C    -3.396470    -3.481512    -2.231838
 H    -3.342117    -4.423242    -2.773127
 C    -3.611116    -3.479975    -0.851324
 O    -3.777268    -4.622972    -0.125408
 H    -3.727892    -5.390764    -0.714075
 C    -3.663944    -2.274121    -0.159201
 H    -3.803104    -2.290632     0.919419
 C    -3.545468    -1.076138    -0.856301
 H    -3.584396    -0.134274    -0.311011
 C     2.186167     7.944960    -1.005880
 C     3.499095     7.242951    -1.371492
 H     3.630770     7.258378    -2.459083
 H     4.341398     7.797103    -0.941951
 C     3.539388     5.815074    -0.878683
 C     3.174344     4.743123    -1.698542
 H     2.864530     4.936583    -2.723116
 C     3.187429     3.427122    -1.232631
 H     2.899296     2.611420    -1.891945
 C     3.581894     3.167032     0.079805
 O     3.638244     1.905137     0.596708
 H     3.497920     1.240996    -0.112218
 C     3.952068     4.223955     0.915958
 H     4.279959     4.003800     1.927156
 C     3.921687     5.526820     0.438138
 H     4.218937     6.341574     1.094854
 H    -5.005132     3.167875    -2.386081
 H    -4.099012     4.704555    -2.436697
 H    -5.485929     4.521993    -1.324308
 H    -0.686454    -0.996020     5.071649
 H    -1.102089    -0.241815     3.542550
 C    -1.636539     0.938453     5.267506
 H    -1.270610     1.156558     6.274662
 H    -2.645054     0.521021     5.353938
 H    -1.713067     1.887457     4.725514
 H     3.825489    -4.710857    -5.198325
 H     4.033840    -2.953613    -5.143360
 H     2.751621    -3.658217    -6.138022
 H     5.634525     0.864169    -0.461879
 H     7.045129     1.026079    -1.524384
 H     7.131693     0.024923    -0.061743
 H     1.340017     7.447644    -1.490417
 H     2.195462     8.991286    -1.325493
 H     2.026433     7.920567     0.077557
 H    -5.041553    -0.136623    -4.180358
 H    -4.627601     1.585231    -4.087666
 H    -5.376700     0.761782    -2.695151
 H     1.912434    -3.511296     3.476869
 H     0.779218    -3.358025     4.838763
 H     0.361017    -2.706198     3.241209
 H    -6.484788    -3.614846    -1.062573
 H    -6.154435    -2.149125    -2.003029
 H    -7.821632    -2.757073    -1.852061

eps=4.0

--Link1--
%chk=1.chk
%nproc=28
%mem=32GB
#p B3LYP/6-311++G(d,p) SCRF=(CPCM,solvent=water,read) SCF=(Tight,MaxCycle=200)
#p GUESS=Read GEOM=CheckPoint

x

0 1

eps=4.0

--Link1--
%chk=1.chk
%nosave
%nproc=28
%mem=32GB
#p M062X/6-311++G(d,p) SCRF=(CPCM,solvent=water,read) SCF=(Tight,MaxCycle=200)
#p GUESS=Read GEOM=CheckPoint

x

0 1

eps=4.0


