%chk=1.chk
%nproc=28
%mem=32GB
#p PBE1PBE/6-311++G(d,p) SCRF=(CPCM,solvent=water,read) SCF=(Tight,MaxCycle=200)

x

0 1
 C    -0.887106    -1.690987     0.141003
 C    -2.203787    -1.290754    -0.365420
 H    -2.878918    -0.847535     0.367854
 C    -0.552566    -1.435335     1.414804
 H    -0.186015    -2.069085    -0.595254
 H    -1.306674    -1.063998     2.109978
 N     0.727520    -1.605626     1.965915
 C     1.833993    -1.317024     1.021286
 H     1.676354    -1.982226     0.165835
 C     1.790801     0.144623     0.512259
 H     2.344418     0.793335     1.204307
 H     0.749056     0.484693     0.504657
 C     2.364884     0.251737    -0.877847
 C     3.708859     0.568654    -1.077763
 C     4.253998     0.593744    -2.361879
 H     4.334532     0.802568    -0.218756
 C     3.452965     0.304583    -3.463989
 H     5.305458     0.839946    -2.490391
 C     2.103422    -0.001072    -3.276435
 H     3.873780     0.320570    -4.464713
 C     1.563508    -0.027722    -1.993166
 H     1.470239    -0.221042    -4.131205
 H     0.510126    -0.270983    -1.855203
 C     3.196281    -1.659249     1.607651
 H     3.471224    -0.980224     2.421573
 H     3.951948    -1.552516     0.821121
 H     3.238284    -2.691817     1.970683
 C     0.901498    -1.033574     3.301510
 H     1.090206     0.048245     3.262384
 H    -0.004860    -1.210041     3.884009
 H     1.735775    -1.522038     3.807757
 C     7.165695    -4.240554     1.722435
 C     6.590138    -2.939096     1.167021
 H     5.560417    -3.143777     0.845786
 C     6.556675    -1.855258     2.245965
 H     7.572348    -1.639108     2.602513
 H     6.123647    -0.919219     1.875189
 H     5.960345    -2.175807     3.107938
 C     7.376188    -2.488137    -0.069276
 H     8.363864    -2.124618     0.252202
 H     7.547868    -3.360131    -0.709935
 C     6.656747    -1.421478    -0.889759
 H     5.716490    -1.824220    -1.282790
 H     6.410822    -0.533628    -0.294623
 H     7.257911    -1.093166    -1.745110
 C     1.614753    -4.984853    -2.887260
 C     1.802254    -3.643254    -2.183462
 H     1.332745    -2.848748    -2.770963
 H     1.259241    -3.659423    -1.228211
 C     3.272315    -3.280490    -1.968178
 H     3.797816    -3.225018    -2.926860
 H     3.352787    -2.281949    -1.511689
 C     4.071030    -4.241201    -1.101535
 O     5.244179    -4.509156    -1.343090
 N     3.433604    -4.737938    -0.012614
 H     2.445574    -4.607047     0.180084
 H     3.947382    -5.383881     0.571558
 C     3.194515     5.168528     2.298586
 C     3.374256     3.652196     2.201405
 H     3.521878     3.232774     3.204305
 H     2.444672     3.217820     1.814480
 C     4.525850     3.226590     1.319124
 C     5.489966     2.322835     1.768547
 H     5.432737     1.939249     2.784857
 C     6.529242     1.892710     0.942578
 H     7.271736     1.189261     1.313857
 C     6.607389     2.362493    -0.367678
 O     7.564641     1.945874    -1.246097
 H     8.098579     1.250364    -0.832762
 C     5.670260     3.289206    -0.828246
 H     5.743787     3.646262    -1.850836
 C     4.645970     3.709542     0.009037
 H     3.909007     4.410664    -0.374564
 C     0.717263     7.971946     0.587880
 C    -0.306394     7.035177    -0.063021
 H    -1.026228     6.701253     0.693412
 H    -0.873679     7.585579    -0.822861
 C     0.350954     5.832139    -0.696436
 C     0.445647     4.619294    -0.008286
 H     0.031415     4.534027     0.995599
 C     1.070528     3.515385    -0.588397
 H     1.133640     2.584821    -0.030998
 C     1.622161     3.607616    -1.866413
 H     2.118699     2.747536    -2.309362
 C     1.544276     4.818145    -2.555473
 H     1.971293     4.905912    -3.550248
 C     0.912640     5.916829    -1.974476
 H     0.847486     6.854786    -2.522151
 C    -3.796782     4.920024     2.125790
 C    -3.786899     4.908121     0.602666
 H    -3.168246     4.079521     0.244108
 H    -3.380040     5.843454     0.205041
 S    -5.482161     4.679516    -0.032440
 C    -5.141047     4.193619    -1.768913
 H    -4.628927     5.012093    -2.278572
 H    -6.131876     4.090699    -2.219730
 C    -4.371140     2.902104    -1.865969
 C    -5.050921     1.702705    -1.616754
 C    -4.379379     0.481944    -1.589294
 H    -6.115302     1.752195    -1.413042
 C    -2.995542     2.892041    -2.143395
 C    -2.217448     4.141144    -2.478190
 H    -2.323379     4.916526    -1.713301
 H    -1.151384     3.915279    -2.566373
 H    -2.553772     4.571300    -3.428408
 C    -2.334991     1.660635    -2.122006
 H    -1.263086     1.610163    -2.300689
 C    -2.999642     0.481034    -1.831787
 N    -2.219705    -0.698067    -1.697275
 C    -2.945553    -1.941710    -1.529877
 C    -2.342440    -3.158731    -2.161814
 O    -1.198047    -3.215125    -2.559659
 N    -3.196919    -4.228868    -2.177554
 H    -2.813407    -5.123986    -2.463313
 C    -4.507729    -4.247597    -1.669086
 O    -5.065663    -5.315391    -1.517706
 N    -5.128340    -3.035402    -1.431437
 C    -4.429127    -1.940239    -1.440211
 N    -5.048787    -0.736973    -1.306513
 C    -6.487310    -0.694233    -1.053960
 C    -5.999065     1.372839     2.273741
 C    -4.915195     0.302964     2.432872
 H    -5.115562    -0.302429     3.323358
 H    -4.960539    -0.385315     1.575530
 C    -3.526480     0.892101     2.527319
 C    -2.959320     1.539148     1.422363
 H    -3.540662     1.645335     0.509653
 C    -1.670402     2.052777     1.456415
 H    -1.235548     2.528141     0.580758
 C    -0.929244     1.967207     2.635984
 O     0.335420     2.483162     2.617395
 H     0.718292     2.457119     3.508038
 C    -1.484735     1.364851     3.763574
 H    -0.912662     1.306645     4.686599
 C    -2.769634     0.824526     3.697856
 H    -3.185087     0.340525     4.578216
 C    -5.610202    -4.709004     1.836842
 C    -4.666794    -5.913257     1.751690
 H    -4.798427    -6.537549     2.644506
 H    -4.943664    -6.525557     0.887829
 C    -3.214528    -5.511592     1.628072
 C    -2.575217    -4.814896     2.659909
 H    -3.124790    -4.582578     3.569607
 C    -1.246907    -4.421814     2.553348
 H    -0.758240    -3.887785     3.364993
 C    -0.530847    -4.704448     1.387513
 O     0.765407    -4.290994     1.241012
 H     0.875486    -3.457006     1.759540
 C    -1.139343    -5.408962     0.353385
 H    -0.572564    -5.616645    -0.550702
 C    -2.468228    -5.810746     0.486241
 H    -2.948752    -6.358047    -0.321159
 H    -6.685312     0.005449    -0.238037
 H    -6.814758    -1.691199    -0.774217
 H    -7.023292    -0.370705    -1.950953
 H    -4.430444     5.721646     2.516754
 H    -2.779198     5.074589     2.498884
 H    -4.159243     3.963623     2.515432
 H    -6.991782     0.918220     2.194870
 H    -5.824352     1.978976     1.377136
 H    -6.001907     2.049988     3.134253
 H     1.446297     8.319541    -0.150957
 H     1.264085     7.451410     1.380288
 H     0.228518     8.847203     1.025483
 H     2.347853     5.413701     2.948422
 H     2.988160     5.602147     1.314728
 H     4.091395     5.648612     2.702231
 H     6.627170    -4.565513     2.619747
 H     8.221734    -4.114914     1.993155
 H     7.096213    -5.035209     0.972630
 H     0.552471    -5.173858    -3.063562
 H     2.018322    -5.807616    -2.286305
 H     2.129762    -4.993299    -3.854106
 H    -6.647357    -5.036655     1.956386
 H    -5.547341    -4.104484     0.927031
 H    -5.358465    -4.070209     2.690206

eps=4.0

