%chk=1.chk
%nproc=28
%mem=32GB
#p PBE1PBE/6-311++G(d,p) SCRF=(CPCM,solvent=water,read) SCF=(Tight,MaxCycle=200)

x

0 1
 C    -1.489570    -0.901954     0.241227
 C    -2.861976    -0.793303     0.019959
 H    -3.527026    -1.344884     0.678683
 C    -1.037847    -1.382975     1.464021
 H    -0.771378    -0.577644    -0.489557
 H    -1.740138    -1.516632     2.287428
 N     0.229514    -1.680529     1.734463
 C     1.211043    -1.775983     0.640674
 H     0.644287    -2.189931    -0.197131
 C     1.774268    -0.410799     0.210859
 H     2.540074    -0.088086     0.928274
 H     0.974295     0.339561     0.253333
 C     2.362409    -0.465122    -1.184759
 C     3.656195    -0.000727    -1.427238
 C     4.196967    -0.015739    -2.712995
 H     4.242367     0.386857    -0.599920
 C     3.448204    -0.503500    -3.781297
 H     5.210827     0.343814    -2.869643
 C     2.159552    -0.983536    -3.553596
 H     3.867234    -0.519751    -4.782576
 C     1.625297    -0.964745    -2.267280
 H     1.566244    -1.372426    -4.375643
 H     0.616438    -1.344375    -2.117974
 C     2.328962    -2.756793     0.963908
 H     2.929268    -2.429413     1.818937
 H     2.995331    -2.805010     0.097238
 H     1.937451    -3.761958     1.156369
 C     0.679914    -1.837408     3.108283
 H     1.472212    -1.110886     3.316805
 H    -0.158965    -1.654046     3.779587
 H     1.066771    -2.844939     3.281886
 C     4.397393    -6.816869    -0.409129
 C     4.383995    -5.298181    -0.578468
 H     3.346518    -4.961352    -0.442239
 C     5.248714    -4.628330     0.491077
 H     6.302601    -4.906276     0.358773
 H     5.182646    -3.535626     0.452788
 H     4.943251    -4.943264     1.495292
 C     4.813759    -4.913015    -1.998240
 H     5.838147    -5.276532    -2.166495
 H     4.166146    -5.449817    -2.702208
 C     4.744307    -3.415975    -2.294631
 H     3.733227    -3.020371    -2.130198
 H     5.426463    -2.833026    -1.665010
 H     5.003330    -3.205765    -3.337010
 C    -1.776870    -4.895765    -2.037761
 C    -0.646443    -4.004871    -1.526746
 H    -0.833777    -2.975094    -1.855072
 H    -0.658429    -3.966724    -0.427724
 C     0.735897    -4.432376    -2.027234
 H     0.786327    -4.365190    -3.118008
 H     1.512929    -3.759094    -1.634618
 C     1.159556    -5.849050    -1.668330
 O     1.770187    -6.556987    -2.461247
 N     0.877328    -6.256915    -0.406878
 H     0.308124    -5.727976     0.244072
 H     1.143087    -7.197694    -0.148967
 C     5.053653     2.688597     3.476232
 C     4.581980     1.419966     2.764024
 H     4.513947     0.595151     3.484046
 H     3.563653     1.587215     2.389149
 C     5.465280     0.989464     1.613956
 C     5.835752    -0.347741     1.452669
 H     5.524770    -1.081545     2.193313
 C     6.594265    -0.771542     0.362245
 H     6.875340    -1.817640     0.261488
 C     6.991759     0.154427    -0.601136
 O     7.702143    -0.191231    -1.711845
 H     7.840366    -1.150356    -1.721563
 C     6.652795     1.500743    -0.449417
 H     6.971911     2.211403    -1.205567
 C     5.901493     1.906052     0.646883
 H     5.627357     2.954374     0.733401
 C     4.283421     6.788725     2.610809
 C     2.921611     6.372629     2.044591
 H     2.307186     5.942489     2.843449
 H     2.392584     7.263314     1.684504
 C     3.046282     5.375131     0.916491
 C     2.680283     4.036543     1.087100
 H     2.283651     3.699514     2.044005
 C     2.807725     3.122931     0.041484
 H     2.524664     2.085377     0.200434
 C     3.309419     3.530300    -1.193000
 H     3.416606     2.810218    -2.000024
 C     3.678171     4.862885    -1.374782
 H     4.066964     5.194511    -2.333010
 C     3.546538     5.773796    -0.328175
 H     3.829337     6.813457    -0.479572
 C    -0.505366     5.709239     0.783355
 C    -0.321812     5.182771    -0.634151
 H    -0.508312     4.105024    -0.665143
 H     0.696858     5.364249    -0.994514
 S    -1.530889     5.983739    -1.743761
 C    -1.585668     4.778083    -3.124301
 H    -0.606568     4.733513    -3.604158
 H    -2.284885     5.219610    -3.840015
 C    -2.062084     3.415813    -2.688660
 C    -3.410854     3.257929    -2.360516
 C    -3.917142     2.058637    -1.856009
 H    -4.069813     4.109706    -2.486015
 C    -1.187576     2.326183    -2.593575
 C     0.267515     2.423774    -2.983864
 H     0.775742     3.232852    -2.447054
 H     0.794989     1.495322    -2.749056
 H     0.387816     2.615874    -4.055870
 C    -1.695470     1.118103    -2.104889
 H    -1.035568     0.262017    -2.083971
 C    -3.007950     0.991967    -1.669077
 N    -3.508791    -0.124789    -0.932689
 C    -4.890159    -0.408289    -1.130196
 C    -5.349164    -1.760529    -1.130618
 O    -4.658424    -2.777512    -0.969312
 N    -6.719091    -1.849619    -1.304152
 H    -7.120687    -2.779782    -1.288649
 C    -7.619074    -0.786392    -1.483891
 O    -8.815457    -1.040325    -1.574188
 N    -7.096860     0.471985    -1.567416
 C    -5.790842     0.623243    -1.408017
 N    -5.270270     1.911408    -1.537833
 C    -6.181142     3.018882    -1.793758
 C    -4.673879     3.620900     1.340881
 C    -4.324744     2.196733     1.777263
 H    -4.897478     1.940451     2.675546
 H    -4.647328     1.492331     0.997793
 C    -2.852787     2.000006     2.061484
 C    -1.878167     2.411837     1.143300
 H    -2.180840     2.884315     0.209918
 C    -0.524285     2.236722     1.396117
 H     0.230217     2.568277     0.687171
 C    -0.113572     1.644645     2.590722
 O     1.233330     1.490604     2.786529
 H     1.405615     1.274947     3.716264
 C    -1.060764     1.230402     3.523667
 H    -0.744053     0.787760     4.465430
 C    -2.416832     1.411751     3.250326
 H    -3.149188     1.099807     3.991549
 C    -5.432713    -1.132376     2.722836
 C    -5.191551    -2.353495     3.615977
 H    -5.112220    -2.035441     4.661054
 H    -6.059270    -3.021379     3.556549
 C    -3.939247    -3.108357     3.231979
 C    -2.894261    -3.301942     4.137007
 H    -2.987764    -2.926002     5.152814
 C    -1.727011    -3.973131     3.768500
 H    -0.927286    -4.117584     4.491254
 C    -1.588581    -4.445504     2.466362
 O    -0.440168    -5.055003     2.026051
 H     0.134795    -5.260760     2.779228
 C    -2.629054    -4.284468     1.551649
 H    -2.528025    -4.679712     0.546036
 C    -3.789473    -3.625862     1.938644
 H    -4.578256    -3.503649     1.200053
 H    -5.825916     3.911900    -1.276254
 H    -7.160418     2.740268    -1.415219
 H    -6.259926     3.229292    -2.866944
 H    -0.335907     6.789835     0.830264
 H     0.208383     5.222049     1.454230
 H    -1.516485     5.499510     1.146165
 H    -5.749476     3.716067     1.164912
 H    -4.156752     3.893390     0.413603
 H    -4.384802     4.344630     2.109738
 H     4.910214     7.232825     1.831290
 H     4.815822     5.923066     3.016533
 H     4.165748     7.523960     3.411914
 H     4.388332     2.932909     4.310293
 H     5.050725     3.544014     2.793627
 H     6.068527     2.568370     3.867486
 H     4.063598    -7.104806     0.594302
 H     5.411712    -7.211116    -0.550013
 H     3.735701    -7.287870    -1.142794
 H    -2.751655    -4.487332    -1.754043
 H    -1.692214    -5.912150    -1.637746
 H    -1.745607    -4.963291    -3.130319
 H    -6.291196    -0.549840     3.069717
 H    -5.632649    -1.428363     1.686197
 H    -4.552609    -0.478937     2.722174

eps=4.0

