%chk=1.chk
%nproc=28
%mem=32GB
#p PBE1PBE/6-311++G(d,p) SCRF=(CPCM,solvent=water,read) SCF=(Tight,MaxCycle=200)

x

0 1
 C     2.559730    -1.290958     1.397167
 C     3.531317    -1.965853     1.016142
 H     4.400685    -2.569340     1.202018
 C     1.429106    -0.538785     1.166994
 H     1.528539    -0.768294    -0.282097
 H     0.480371    -1.040604     1.377135
 N     1.471983     0.882571     1.452708
 C     0.627763     1.644318     0.496666
 H     1.134396     1.526150    -0.471090
 C    -0.811226     1.096544     0.368566
 H    -1.305479     1.103567     1.349228
 H    -0.781399     0.047733     0.044051
 C    -1.638947     1.887711    -0.615473
 C    -2.754134     2.617691    -0.196296
 C    -3.531455     3.327014    -1.110503
 H    -3.031063     2.617199     0.856011
 C    -3.186356     3.332343    -2.460459
 H    -4.410201     3.863358    -0.761855
 C    -2.063870     2.623186    -2.889436
 H    -3.787652     3.884921    -3.175946
 C    -1.299359     1.902680    -1.973926
 H    -1.787949     2.623907    -3.939697
 H    -0.431354     1.341827    -2.317468
 C     0.603204     3.126357     0.850692
 H    -0.024720     3.325882     1.726811
 H     0.172931     3.684314     0.015965
 H     1.607917     3.514994     1.043467
 C     1.130461     1.106710     2.866022
 H     0.089426     0.839386     3.100765
 H     1.787989     0.485566     3.479379
 H     1.302861     2.153063     3.125689
 C     0.935826     7.770639     1.317634
 C     0.109619     6.674988     0.644523
 H     0.755737     5.790748     0.544857
 C    -1.091189     6.285490     1.507543
 H    -1.800031     7.120959     1.577614
 H    -1.626794     5.422461     1.096149
 H    -0.773301     6.029377     2.524362
 C    -0.307645     7.112791    -0.765596
 H    -0.809758     8.088815    -0.693856
 H     0.605164     7.276358    -1.352714
 C    -1.231121     6.130217    -1.486730
 H    -0.846115     5.102150    -1.456184
 H    -2.227335     6.105691    -1.034369
 H    -1.353459     6.401597    -2.540205
 C     4.335519     3.505610    -2.667770
 C     2.967016     3.503433    -1.990990
 H     2.268628     2.893508    -2.576409
 H     3.042261     3.005642    -1.018265
 C     2.388273     4.909504    -1.844212
 H     2.357194     5.425760    -2.809024
 H     1.353111     4.859835    -1.482649
 C     3.130063     5.835390    -0.892374
 O     3.203466     7.043148    -1.100370
 N     3.661485     5.265142     0.216653
 H     3.627021     4.271173     0.426403
 H     4.116439     5.875675     0.881792
 C    -5.872960     0.180788     3.118359
 C    -5.050462     1.291831     2.461816
 H    -4.620244     1.939924     3.235152
 H    -4.207577     0.830942     1.931802
 C    -5.847823     2.139343     1.496900
 C    -5.949725     3.521177     1.657147
 H    -5.453633     3.999286     2.498694
 C    -6.675161     4.310225     0.763800
 H    -6.745181     5.385249     0.911929
 C    -7.310469     3.712262    -0.322758
 O    -8.033930     4.420043    -1.236652
 H    -8.018819     5.358941    -0.998748
 C    -7.220227     2.329718    -0.503317
 H    -7.717325     1.877117    -1.355763
 C    -6.502807     1.559332     0.401301
 H    -6.443732     0.484058     0.244891
 C    -7.900247    -2.986886     0.738023
 C    -6.578487    -3.482710     0.140963
 H    -5.992938    -3.990418     0.915876
 H    -6.788861    -4.225493    -0.637560
 C    -5.768572    -2.350965    -0.445601
 C    -4.698253    -1.784962     0.253422
 H    -4.423966    -2.177720     1.231539
 C    -3.981568    -0.713014    -0.281584
 H    -3.154528    -0.290242     0.283443
 C    -4.333912    -0.179922    -1.519172
 H    -3.782649     0.661404    -1.928791
 C    -5.401259    -0.735365    -2.224234
 H    -5.683333    -0.329803    -3.191644
 C    -6.108328    -1.810972    -1.692133
 H    -6.937921    -2.242389    -2.248701
 C    -3.194897    -5.730299     1.411337
 C    -3.022563    -5.396565    -0.064267
 H    -2.525978    -4.429040    -0.170252
 H    -3.989097    -5.344375    -0.576978
 S    -1.980584    -6.660237    -0.867811
 C    -1.537850    -5.790624    -2.419540
 H    -2.456052    -5.516291    -2.942492
 H    -1.026785    -6.547092    -3.021011
 C    -0.642074    -4.599778    -2.189817
 C     0.712950    -4.826569    -1.948876
 C     1.592492    -3.772456    -1.684926
 H     1.077813    -5.847763    -1.977663
 C    -1.146803    -3.282442    -2.202567
 C    -2.560734    -2.959923    -2.620114
 H    -3.310985    -3.291240    -1.892632
 H    -2.681506    -1.881744    -2.733458
 H    -2.802543    -3.427177    -3.580086
 C    -0.276399    -2.247579    -1.874239
 H    -0.635947    -1.220457    -1.867441
 C     1.071874    -2.469473    -1.592713
 N     1.898693    -1.367102    -1.321792
 C     3.195002    -1.633414    -1.108168
 C     4.073957    -0.432896    -1.102543
 O     3.614065     0.690484    -1.037065
 N     5.406784    -0.727857    -1.135179
 H     6.063142     0.035483    -0.974865
 C     5.960065    -2.019242    -1.216067
 O     7.167337    -2.141337    -1.128240
 N     5.116919    -3.097506    -1.415864
 C     3.822151    -2.926362    -1.396747
 N     2.978815    -3.975315    -1.580674
 C     3.517393    -5.323535    -1.744916
 C     1.133651    -6.150839     1.973600
 C     1.637647    -4.712134     2.119780
 H     2.347782    -4.643448     2.951346
 H     2.191276    -4.429418     1.213508
 C     0.516931    -3.722623     2.331984
 C    -0.423701    -3.508306     1.319047
 H    -0.337784    -4.066823     0.388824
 C    -1.457746    -2.591720     1.464898
 H    -2.158884    -2.407449     0.655899
 C    -1.577972    -1.869202     2.653818
 O    -2.597323    -0.962881     2.735523
 H    -2.585061    -0.528650     3.602510
 C    -0.661796    -2.076199     3.684798
 H    -0.750139    -1.514843     4.611904
 C     0.375122    -2.993728     3.513998
 H     1.092565    -3.134212     4.318653
 C     9.088461    -1.380661     1.612960
 C     8.897928    -0.075018     0.849769
 H     9.682991     0.637146     1.134409
 H     9.034509    -0.272069    -0.220020
 C     7.547507     0.587882     1.034286
 C     6.547583     0.068550     1.857852
 H     6.729008    -0.839503     2.425395
 C     5.302276     0.688647     1.969602
 H     4.536983     0.271974     2.617358
 C     5.018961     1.833654     1.229766
 O     3.796954     2.439660     1.285143
 H     3.067903     1.754010     1.300557
 C     6.015200     2.386389     0.420626
 H     5.791817     3.283275    -0.149733
 C     7.258414     1.769790     0.334217
 H     8.021640     2.203347    -0.308910
 H     3.094740    -5.979010    -0.978736
 H     4.596304    -5.269983    -1.633974
 H     3.263892    -5.707063    -2.736197
 H    -3.683464    -6.699574     1.547628
 H    -3.809848    -4.965000     1.895453
 H    -2.223992    -5.752929     1.915918
 H     1.966546    -6.843914     1.819935
 H     0.454260    -6.239925     1.118123
 H     0.588080    -6.464113     2.869560
 H    -8.505697    -2.488803    -0.025778
 H    -7.714818    -2.266056     1.540565
 H    -8.482758    -3.815944     1.149899
 H    -5.253133    -0.416331     3.794544
 H    -6.278664    -0.496499     2.360019
 H    -6.710374     0.594514     3.688662
 H     1.285099     7.450470     2.305583
 H     0.332708     8.677296     1.453221
 H     1.809032     8.022099     0.707386
 H     4.770197     2.502292    -2.661009
 H     5.028135     4.178949    -2.149121
 H     4.259565     3.848984    -3.705194
 H    10.084581    -1.788717     1.422154
 H     8.352389    -2.123329     1.290680
 H     8.987054    -1.235303     2.693458

eps=4.0


