%chk=1.chk
%nproc=28
%mem=32GB
#p PBE1PBE/6-311++G(d,p) SCRF=(CPCM,solvent=water,read) SCF=(Tight,MaxCycle=200)

x

0 1
 C     3.164796     1.171178    -1.738047
 C     4.333630     1.306344    -2.007528
 H     5.370863     1.426877    -2.240165
 C     1.745647     0.994884    -1.425841
 H     1.511670     1.543783    -0.505740
 H     1.532612    -0.069297    -1.238214
 N     0.896609     1.519835    -2.512368
 H     1.223013     1.142161    -3.402328
 C    -0.457088     1.206542    -2.308023
 C    -1.153997     1.147815    -1.129997
 C    -2.512166     0.843191    -1.470570
 H    -0.750119     1.308609    -0.142513
 C    -2.576676     0.742507    -2.881331
 C    -3.677911     0.635064    -0.717377
 C    -3.765054     0.456104    -3.554960
 N    -1.302464     0.976732    -3.368853
 C    -4.902683     0.254206    -2.783582
 H    -3.796355     0.386501    -4.638083
 C    -4.859897     0.340724    -1.378702
 H    -5.842912     0.014524    -3.271332
 H    -5.765688     0.154040    -0.807621
 H    -1.022165     0.917854    -4.337477
 H    -3.650260     0.708839     0.367932
 C    -6.195784     3.324224     3.428897
 C    -5.915185     1.846490     3.155914
 H    -6.451456     1.240962     3.903297
 C    -6.416772     1.464041     1.762651
 H    -7.496660     1.627097     1.673812
 H    -5.913146     2.081178     1.008077
 H    -6.222349     0.411079     1.530139
 C    -4.418251     1.551012     3.310825
 H    -3.883800     2.100983     2.519544
 H    -4.071558     1.963684     4.267400
 C    -4.075858     0.062138     3.254612
 H    -4.674384    -0.496869     3.984582
 H    -4.281366    -0.362989     2.265828
 H    -3.020648    -0.122520     3.479079
 C    -2.126278     5.631968    -2.596478
 C    -2.666826     4.206451    -2.695249
 H    -2.962906     3.997009    -3.729832
 H    -1.875401     3.484351    -2.461205
 C    -3.879890     3.956207    -1.800774
 H    -4.665658     4.692288    -2.005367
 H    -4.312838     2.970733    -2.014544
 C    -3.663949     3.994924    -0.295127
 O    -4.616877     4.117058     0.471540
 N    -2.396104     3.873187     0.162242
 H    -1.583556     3.746529    -0.434057
 H    -2.264146     3.891451     1.164125
 C    -4.446226    -4.845062    -2.304054
 C    -4.474214    -3.318452    -2.182646
 H    -3.485825    -2.960406    -1.868726
 H    -4.676457    -2.871607    -3.163260
 C    -5.510123    -2.843593    -1.194528
 C    -5.193130    -2.723531     0.158997
 H    -4.183932    -2.965522     0.484277
 C    -6.127933    -2.279933     1.089826
 H    -5.859327    -2.190364     2.140864
 C    -7.411362    -1.930842     0.665869
 O    -8.363794    -1.458672     1.520861
 H    -7.976002    -1.352470     2.402571
 C    -7.754771    -2.057010    -0.680650
 H    -8.757127    -1.783617    -0.994540
 C    -6.808821    -2.515831    -1.592187
 H    -7.080746    -2.599282    -2.642385
 C    -2.617429    -4.054947     2.726788
 C    -1.958261    -2.894354     1.988009
 H    -2.624036    -2.022664     1.993170
 H    -1.067905    -2.569763     2.545842
 C    -1.559071    -3.171101     0.551770
 C    -1.179229    -2.092820    -0.260571
 H    -1.203931    -1.087535     0.153614
 C    -0.774069    -2.291345    -1.576155
 H    -0.464108    -1.444383    -2.183056
 C    -0.744948    -3.581850    -2.110398
 H    -0.416491    -3.739637    -3.133310
 C    -1.135126    -4.659184    -1.321637
 H    -1.127647    -5.665781    -1.729943
 C    -1.543682    -4.454794    -0.000278
 H    -1.849767    -5.309143     0.597510
 C     2.764588    -0.719754     5.142857
 C     2.819119    -2.107810     4.518756
 H     2.334526    -2.088015     3.538747
 H     2.309668    -2.843070     5.149404
 S     4.552647    -2.630012     4.296038
 C     4.314186    -4.112554     3.244298
 H     3.625339    -4.796664     3.743901
 H     5.295837    -4.592269     3.211633
 C     3.854396    -3.757168     1.853024
 C     4.791867    -3.222786     0.976326
 C     4.411554    -2.781540    -0.296773
 H     5.819007    -3.125433     1.309910
 C     2.499664    -3.917919     1.458527
 C     1.480844    -4.598926     2.339437
 H     1.348371    -4.087935     3.298039
 H     0.512435    -4.625234     1.833098
 H     1.775017    -5.631137     2.557562
 C     2.122792    -3.447319     0.213611
 H     1.091969    -3.516479    -0.122960
 C     3.048014    -2.853606    -0.661628
 N     2.595334    -2.318286    -1.838476
 C     3.462684    -1.796141    -2.637560
 C     2.965896    -1.098877    -3.861058
 O     1.788096    -0.859967    -4.070487
 N     3.968504    -0.740206    -4.714772
 H     3.702969    -0.267081    -5.572842
 C     5.359922    -0.816748    -4.470527
 O     6.115064    -0.405155    -5.327817
 N     5.787887    -1.331936    -3.270643
 C     4.907013    -1.780463    -2.415142
 N     5.318893    -2.261377    -1.206293
 C     6.740855    -2.223163    -0.856381
 C     5.369414     1.313129     2.839899
 C     4.616506     1.357806     1.506768
 H     4.765890     2.331823     1.024287
 H     5.028118     0.603951     0.824590
 C     3.135683     1.120076     1.675205
 C     2.595265    -0.168387     1.606898
 H     3.256185    -1.013681     1.422204
 C     1.232444    -0.397055     1.772011
 H     0.815476    -1.397863     1.689219
 C     0.379896     0.677416     2.027415
 O    -0.951815     0.402396     2.165813
 H    -1.443662     1.222004     2.331925
 C     0.896541     1.971929     2.103619
 H     0.235684     2.816363     2.287392
 C     2.263371     2.182129     1.929721
 H     2.651264     3.198289     1.972896
 C     5.013435     5.131673     2.888910
 C     4.450701     6.209483     1.955348
 H     4.067077     7.045661     2.549972
 H     5.259930     6.607464     1.332427
 C     3.349626     5.666291     1.076456
 C     2.001694     5.844691     1.404341
 H     1.740720     6.433110     2.280967
 C     0.985469     5.286241     0.634630
 H    -0.060443     5.433220     0.889500
 C     1.310324     4.524639    -0.488476
 O     0.292459     3.977474    -1.209267
 H     0.640521     3.346015    -1.879306
 C     2.647410     4.349965    -0.846187
 H     2.897244     3.773202    -1.732167
 C     3.649642     4.914047    -0.062869
 H     4.689626     4.766042    -0.348227
 H     7.288423    -1.847034    -1.714662
 H     7.077340    -3.231205    -0.607042
 H     6.886143    -1.561522     0.000904
 H     4.950448     2.039760     3.544715
 H     6.430505     1.544269     2.702367
 H     5.291280     0.318388     3.292149
 H     3.208804     0.022913     4.473656
 H     3.291118    -0.690150     6.101430
 H     1.722061    -0.437953     5.316512
 H    -3.503811    -4.417208     2.194081
 H    -2.930015    -3.737968     3.725444
 H    -1.931623    -4.900486     2.846453
 H    -4.219393    -5.300324    -1.334022
 H    -3.680531    -5.169316    -3.015874
 H    -5.416415    -5.226569    -2.639887
 H    -7.264363     3.546409     3.336217
 H    -5.655053     3.939813     2.701972
 H    -5.876198     3.610358     4.437196
 H    -1.811439     5.866246    -1.574750
 H    -2.894174     6.356632    -2.888631
 H    -1.259761     5.771536    -3.249118
 H     4.223199     4.727549     3.531004
 H     5.805287     5.531928     3.529054
 H     5.430528     4.300460     2.309531

eps=4.0

--Link1--
%chk=1.chk
%nproc=28
%mem=32GB
#p B3LYP/6-311++G(d,p) SCRF=(CPCM,solvent=water,read) SCF=(Tight,MaxCycle=200)
#p GUESS=Read GEOM=CheckPoint

x

0 1

eps=4.0

--Link1--
%chk=1.chk
%nosave
%nproc=28
%mem=32GB
#p M062X/6-311++G(d,p) SCRF=(CPCM,solvent=water,read) SCF=(Tight,MaxCycle=200)
#p GUESS=Read GEOM=CheckPoint

x

0 1

eps=4.0


