%chk=1.chk
%nproc=28
%mem=32GB
#p PBE1PBE/6-311++G(d,p) SCRF=(CPCM,solvent=water,read) SCF=(Tight,MaxCycle=200)

x

0 1
 C     1.988576     0.434343    -1.669180
 C     3.255701     0.471320    -1.978357
 H     3.775103     1.426618    -2.083382
 C     0.704550     0.501105    -1.403215
 H     0.343952     0.509556    -0.376840
 H     2.805287    -2.364408    -1.972780
 N    -0.278449     0.636929    -2.398448
 H     0.036278     0.442324    -3.343344
 C    -1.624322     0.371487    -2.129647
 C    -2.297960     0.283014    -0.936151
 C    -3.691564     0.166728    -1.269199
 H    -1.871474     0.316899     0.057275
 C    -3.793203     0.179844    -2.678900
 C    -4.866095     0.067295    -0.508339
 C    -5.015509     0.086950    -3.346102
 N    -2.509390     0.302332    -3.180920
 C    -6.160779    -0.006619    -2.566589
 H    -5.067042     0.095889    -4.430765
 C    -6.085446    -0.013345    -1.160675
 H    -7.129866    -0.077224    -3.050852
 H    -6.997984    -0.097149    -0.577622
 H    -2.268792     0.386330    -4.158222
 H    -4.816642     0.045639     0.576213
 C    -5.820931     2.928447     3.884787
 C    -5.932082     1.424028     3.636490
 H    -6.289366     0.939666     4.557552
 C    -6.940169     1.153078     2.516505
 H    -7.920267     1.569645     2.772092
 H    -6.604709     1.635646     1.589816
 H    -7.076143     0.082836     2.324181
 C    -4.555599     0.829518     3.311258
 H    -4.222820     1.252867     2.348533
 H    -3.836313     1.163100     4.073058
 C    -4.544190    -0.696799     3.247833
 H    -4.845688    -1.120380     4.212748
 H    -5.237384    -1.069217     2.487076
 H    -3.549461    -1.082977     3.002901
 C    -3.110854     4.952890    -2.587915
 C    -3.742062     3.563145    -2.621972
 H    -4.060924     3.325306    -3.643990
 H    -2.995871     2.804043    -2.360553
 C    -4.959184     3.430790    -1.709374
 H    -5.707682     4.192722    -1.952808
 H    -5.440313     2.457286    -1.863440
 C    -4.728514     3.544340    -0.211136
 O    -5.651482     3.838781     0.544681
 N    -3.484115     3.279653     0.253345
 H    -2.695679     3.038143    -0.338771
 H    -3.341179     3.339769     1.252404
 C    -2.560241    -4.499844    -2.875833
 C    -3.293289    -3.165986    -2.702299
 H    -2.555868    -2.372664    -2.517938
 H    -3.821449    -2.900345    -3.625666
 C    -4.270837    -3.200897    -1.553023
 C    -3.791343    -3.188441    -0.241598
 H    -2.718246    -3.134195    -0.079016
 C    -4.648592    -3.224317     0.850435
 H    -4.250641    -3.213842     1.863212
 C    -6.028059    -3.254587     0.639841
 O    -6.925712    -3.228297     1.671163
 H    -6.443008    -3.220590     2.511312
 C    -6.529381    -3.300825    -0.658618
 H    -7.604398    -3.332415    -0.806249
 C    -5.651269    -3.275487    -1.739589
 H    -6.053649    -3.287890    -2.749847
 C    -1.667335    -4.894258     2.109569
 C    -0.793900    -3.715196     1.674342
 H    -1.376636    -2.785440     1.704441
 H     0.012633    -3.583174     2.409317
 C    -0.188539    -3.865688     0.293363
 C    -0.140389    -2.774825    -0.581590
 H    -0.569860    -1.823794    -0.269917
 C     0.423371    -2.895390    -1.851567
 H     0.440045    -2.039687    -2.522255
 C     0.968650    -4.110537    -2.265207
 H     1.413738    -4.199190    -3.252070
 C     0.929684    -5.205793    -1.402728
 H     1.347208    -6.158353    -1.714064
 C     0.350064    -5.084530    -0.140941
 H     0.323744    -5.950401     0.515318
 C     2.330745     0.232767     5.167155
 C     2.943976    -1.108891     4.788737
 H     2.634298    -1.385102     3.777036
 H     2.627138    -1.897619     5.478430
 S     4.764257    -1.004605     4.802434
 C     5.170573    -2.489471     3.807531
 H     4.744265    -3.366335     4.299744
 H     6.258835    -2.573763     3.878288
 C     4.741545    -2.396520     2.364403
 C     5.453306    -1.547254     1.510994
 C     5.121746    -1.424612     0.165142
 H     6.287635    -0.986732     1.920838
 C     3.667200    -3.143510     1.852991
 C     2.904207    -4.138581     2.695090
 H     2.426810    -3.668413     3.561847
 H     2.124489    -4.618412     2.097336
 H     3.563009    -4.926261     3.075900
 C     3.310277    -2.980556     0.512693
 H     2.477965    -3.545491     0.101948
 C     4.010751    -2.125577    -0.333429
 N     3.713873    -2.012202    -1.682449
 C     4.087013    -0.785260    -2.327198
 C     3.866006    -0.981798    -3.826605
 O     2.915081    -1.613338    -4.241715
 N     4.755183    -0.317081    -4.611420
 H     4.598274    -0.309926    -5.614177
 C     5.950095     0.302419    -4.169416
 O     6.612733     0.910204    -4.981557
 N     6.327340     0.144330    -2.853729
 C     5.532661    -0.448102    -2.010783
 N     5.923806    -0.680484    -0.741013
 C     7.233695    -0.217845    -0.284934
 C     4.615682     2.294032     2.384971
 C     3.772085     2.014041     1.137892
 H     3.684273     2.924538     0.532282
 H     4.279656     1.263890     0.517872
 C     2.390088     1.517531     1.481819
 C     2.141394     0.153623     1.656028
 H     2.954560    -0.553807     1.524213
 C     0.877441    -0.319716     1.993058
 H     0.693485    -1.383958     2.117468
 C    -0.173364     0.583852     2.162791
 O    -1.402540     0.069620     2.472662
 H    -2.044034     0.790025     2.580448
 C     0.051656     1.951016     1.990246
 H    -0.765213     2.659860     2.109734
 C     1.328153     2.405406     1.663230
 H     1.495624     3.472564     1.530886
 C     3.977016     6.037562     1.716040
 C     3.150700     6.768290     0.651268
 H     2.700066     7.665841     1.088484
 H     3.812493     7.104770    -0.154924
 C     2.067414     5.880663     0.087898
 C     0.754093     5.943889     0.564059
 H     0.494393     6.688880     1.312437
 C    -0.227349     5.070610     0.105712
 H    -1.245524     5.114588     0.482502
 C     0.103634     4.101240    -0.840385
 O    -0.871795     3.229624    -1.220276
 H    -0.531280     2.592549    -1.876195
 C     1.399476     4.035726    -1.351955
 H     1.648577     3.284541    -2.097962
 C     2.365290     4.921750    -0.884608
 H     3.376740     4.860885    -1.281722
 H     7.766713     0.194218    -1.136287
 H     7.788446    -1.058759     0.136575
 H     7.105100     0.554556     0.478783
 H     4.125434     3.036810     3.024251
 H     5.605023     2.678481     2.114594
 H     4.748117     1.377338     2.970701
 H     2.601111     0.999136     4.433910
 H     2.663979     0.559798     6.156851
 H     1.239866     0.149073     5.183413
 H    -2.448175    -5.097441     1.369922
 H    -2.149186    -4.677349     3.067213
 H    -1.077082    -5.805941     2.238256
 H    -2.005004    -4.752671    -1.964699
 H    -1.842594    -4.454505    -3.701090
 H    -3.270087    -5.308924    -3.077428
 H    -6.787577     3.348288     4.183037
 H    -5.508505     3.436134     2.964755
 H    -5.097035     3.149522     4.677011
 H    -2.783889     5.212072    -1.575711
 H    -3.829241     5.712094    -2.916021
 H    -2.234323     5.007087    -3.240354
 H     3.333091     5.695298     2.533262
 H     4.750583     6.687484     2.135617
 H     4.466932     5.156610     1.286798

eps=4.0

--Link1--
%chk=1.chk
%nproc=28
%mem=32GB
#p B3LYP/6-311++G(d,p) SCRF=(CPCM,solvent=water,read) SCF=(Tight,MaxCycle=200)
#p GUESS=Read GEOM=CheckPoint

x

0 1

eps=4.0

--Link1--
%chk=1.chk
%nosave
%nproc=28
%mem=32GB
#p M062X/6-311++G(d,p) SCRF=(CPCM,solvent=water,read) SCF=(Tight,MaxCycle=200)
#p GUESS=Read GEOM=CheckPoint

x

0 1

eps=4.0


