%chk=1.chk
%nproc=28
%mem=32GB
#p PBE1PBE/6-311++G(d,p) SCRF=(CPCM,solvent=water,read) SCF=(Tight,MaxCycle=200)

x

0 1
 C    -1.447958    -0.120771    -2.452395
 C    -2.625721    -0.049774    -1.575868
 H    -2.472011    -0.398263    -0.552586
 C    -0.230423    -0.388650    -1.957961
 H    -0.063285    -0.527944    -0.889809
 H    -1.597203     0.036774    -3.517399
 N     0.883358    -0.589344    -2.759053
 H     0.759676    -0.418444    -3.750693
 C     2.187481    -0.592987    -2.281136
 C     2.664021    -0.520902    -0.998429
 C     4.088363    -0.678431    -1.081504
 H     2.058201    -0.434778    -0.112338
 C     4.412306    -0.840525    -2.449652
 C     5.122244    -0.706960    -0.135915
 C     5.718786    -1.034513    -2.894983
 N     3.228474    -0.775813    -3.162162
 C     6.722976    -1.053503    -1.934771
 H     5.941248    -1.161852    -3.950260
 C     6.427269    -0.888655    -0.569516
 H     7.752797    -1.201379    -2.244972
 H     7.234449    -0.909677     0.156314
 H     3.138821    -0.896053    -4.160686
 H     4.900063    -0.606299     0.923069
 C     5.803728    -2.306808     4.837945
 C     5.865294    -0.929130     4.177889
 H     6.225823    -0.197080     4.916161
 C     6.839661    -0.961118     2.999023
 H     7.848398    -1.225281     3.334575
 H     6.512376    -1.721578     2.278516
 H     6.902203     0.003783     2.481430
 C     4.463170    -0.492925     3.737062
 H     4.123401    -1.191906     2.956100
 H     3.771035    -0.610579     4.581006
 C     4.390125     0.948397     3.232944
 H     4.833915     1.633604     3.965191
 H     4.930839     1.074283     2.287812
 H     3.355368     1.267951     3.072383
 C     2.563175    -5.335615    -1.427142
 C     3.502615    -4.152877    -1.658615
 H     3.978092    -4.252990    -2.641313
 H     2.937850    -3.212919    -1.697543
 C     4.611254    -4.044040    -0.612979
 H     5.144290    -4.997816    -0.521998
 H     5.355488    -3.302700    -0.926800
 C     4.222760    -3.655984     0.807068
 O     5.028661    -3.769340     1.727012
 N     2.971911    -3.177190     1.014549
 H     2.287271    -3.032351     0.279177
 H     2.726077    -2.932814     1.964553
 C     2.219020     4.109373    -3.750770
 C     2.608992     2.684852    -3.344109
 H     1.712062     2.156592    -2.993025
 H     2.976732     2.134901    -4.218656
 C     3.658974     2.656834    -2.258665
 C     3.324055     2.999606    -0.947930
 H     2.300648     3.282070    -0.715024
 C     4.266301     2.974684     0.078403
 H     3.978807     3.248037     1.093199
 C     5.582815     2.607695    -0.205782
 O     6.546764     2.523966     0.758222
 H     6.174844     2.802368     1.608859
 C     5.947782     2.297172    -1.514121
 H     6.972063     2.004136    -1.718453
 C     4.988588     2.317875    -2.520689
 H     5.279816     2.043758    -3.532349
 C     1.491588     6.012848     0.305445
 C     0.371408     4.987192     0.518118
 H     0.802404     4.051868     0.888862
 H    -0.310942     5.355883     1.295623
 C    -0.408346     4.720158    -0.749692
 C    -0.365564     3.481128    -1.397035
 H     0.205343     2.663030    -0.957346
 C    -1.048545     3.279238    -2.597154
 H    -1.001051     2.310512    -3.083327
 C    -1.803935     4.304571    -3.158486
 H    -2.342836     4.140169    -4.086383
 C    -1.873242     5.538827    -2.511947
 H    -2.467246     6.343573    -2.934772
 C    -1.176780     5.741818    -1.324158
 H    -1.230095     6.708638    -0.827229
 C    -1.558443     1.827253     5.038018
 C    -2.579884     2.721347     4.347281
 H    -2.407418     2.719307     3.266915
 H    -2.509695     3.752249     4.708002
 S    -4.266930     2.101042     4.654364
 C    -5.185332     3.036417     3.372446
 H    -5.011380     4.104350     3.519373
 H    -6.239543     2.841209     3.587760
 C    -4.836419     2.591022     1.974283
 C    -5.264993     1.322718     1.570653
 C    -4.899705     0.788099     0.338553
 H    -5.854942     0.739804     2.269176
 C    -4.065251     3.377818     1.106754
 C    -3.609777     4.771433     1.465429
 H    -3.007350     4.783533     2.380093
 H    -3.002690     5.187986     0.657676
 H    -4.461552     5.440504     1.628229
 C    -3.717674     2.840133    -0.137636
 H    -3.108420     3.413991    -0.831808
 C    -4.097313     1.560982    -0.514479
 N    -3.581533     1.043582    -1.739526
 C    -4.037411    -0.286261    -2.098102
 C    -4.170678    -0.566271    -3.568880
 O    -3.756571     0.171037    -4.438007
 N    -4.706201    -1.801457    -3.825291
 H    -4.700233    -2.127862    -4.786255
 C    -5.251176    -2.677659    -2.868876
 O    -5.536617    -3.810443    -3.202627
 N    -5.485681    -2.189900    -1.602710
 C    -4.984889    -1.045021    -1.239873
 N    -5.314862    -0.513853    -0.040168
 C    -6.244364    -1.227617     0.834211
 C    -2.565960    -2.632339     3.425915
 C    -2.634917    -1.753013     2.177093
 H    -2.694969    -2.395795     1.285493
 H    -3.558608    -1.160478     2.199623
 C    -1.472143    -0.795944     2.032922
 C    -1.701561     0.558117     1.771949
 H    -2.723426     0.925622     1.740503
 C    -0.661058     1.451582     1.540477
 H    -0.865478     2.491305     1.297145
 C     0.654678     1.000040     1.605877
 O     1.651745     1.897920     1.345029
 H     2.450483     1.447091     1.018005
 C     0.913635    -0.329776     1.946508
 H     1.944568    -0.665161     2.045977
 C    -0.141914    -1.218586     2.131335
 H     0.078188    -2.257482     2.360946
 C    -5.327994    -4.830774     0.911210
 C    -4.151006    -5.789872     0.708803
 H    -3.960799    -6.347747     1.632124
 H    -4.418202    -6.529313    -0.056024
 C    -2.890932    -5.064904     0.297159
 C    -1.742419    -5.084272     1.091176
 H    -1.743576    -5.651740     2.018647
 C    -0.588986    -4.400201     0.716753
 H     0.311963    -4.440688     1.323079
 C    -0.578894    -3.666519    -0.467380
 O     0.575543    -3.003237    -0.789709
 H     0.540766    -2.685324    -1.707787
 C    -1.713509    -3.630977    -1.279639
 H    -1.699046    -3.066122    -2.209510
 C    -2.851702    -4.335669    -0.895959
 H    -3.724343    -4.332913    -1.545060
 H    -6.509385    -2.166387     0.358325
 H    -7.141017    -0.621528     0.986661
 H    -5.770912    -1.426818     1.799239
 H    -1.663901    -3.251600     3.425927
 H    -3.426372    -3.307492     3.470641
 H    -2.559871    -2.019005     4.332765
 H    -1.606125     0.808837     4.640418
 H    -1.727389     1.790299     6.118321
 H    -0.550072     2.213214     4.862211
 H     2.204062     5.658671    -0.446865
 H     2.039273     6.188030     1.236155
 H     1.090222     6.971392    -0.037702
 H     1.826798     4.661165    -2.889192
 H     1.441138     4.100788    -4.520816
 H     3.087277     4.652185    -4.137862
 H     6.795535    -2.629506     5.172362
 H     5.431004    -3.042113     4.115831
 H     5.137327    -2.302298     5.707556
 H     2.085371    -5.281098    -0.443871
 H     3.116327    -6.279592    -1.479627
 H     1.768084    -5.365999    -2.178508
 H    -5.081849    -4.078138     1.669195
 H    -6.222529    -5.368967     1.238742
 H    -5.564063    -4.303966    -0.019633

eps=4.0

--Link1--
%chk=1.chk
%nproc=28
%mem=32GB
#p B3LYP/6-311++G(d,p) SCRF=(CPCM,solvent=water,read) SCF=(Tight,MaxCycle=200)
#p GUESS=Read GEOM=CheckPoint

x

0 1

eps=4.0

--Link1--
%chk=1.chk
%nosave
%nproc=28
%mem=32GB
#p M062X/6-311++G(d,p) SCRF=(CPCM,solvent=water,read) SCF=(Tight,MaxCycle=200)
#p GUESS=Read GEOM=CheckPoint

x

0 1

eps=4.0

