%chk=1.chk
%nproc=28
%mem=32GB
#p PBE1PBE/6-311++G(d,p) SCRF=(CPCM,solvent=water,read) SCF=(Tight,MaxCycle=200)

x

0 1
 C    -1.272792     0.051416    -2.467812
 C    -2.295607     0.128683    -1.556375
 H    -2.141867    -0.198171    -0.523693
 C    -0.025002    -0.361128    -2.000990
 H     0.107738    -0.641598    -0.956525
 H    -1.441620     0.349076    -3.496724
 N     1.059638    -0.410493    -2.758573
 H     0.965487    -0.172234    -3.743884
 C     2.347629    -0.654056    -2.267390
 C     2.794234    -0.601765    -0.976916
 C     4.182493    -0.939823    -1.021048
 H     2.204804    -0.329874    -0.116331
 C     4.512189    -1.180191    -2.375934
 C     5.182966    -1.041375    -0.041843
 C     5.805406    -1.525613    -2.779570
 N     3.367688    -0.992765    -3.124194
 C     6.772815    -1.612690    -1.790956
 H     6.041084    -1.711061    -3.822652
 C     6.466866    -1.370563    -0.434562
 H     7.789102    -1.875909    -2.066823
 H     7.252556    -1.449956     0.310268
 H     3.278118    -1.177110    -4.113651
 H     4.943460    -0.875045     1.004449
 C     5.500371    -2.554446     4.997524
 C     5.663133    -1.198711     4.309979
 H     6.039967    -0.471435     5.044672
 C     6.674175    -1.312934     3.167487
 H     7.656581    -1.615216     3.545939
 H     6.333754    -2.078453     2.458588
 H     6.802273    -0.367845     2.625439
 C     4.303389    -0.693343     3.813012
 H     3.951967    -1.383396     3.029475
 H     3.578027    -0.758766     4.634077
 C     4.329529     0.742299     3.288111
 H     4.820309     1.407410     4.008737
 H     4.874836     0.818445     2.340275
 H     3.317863     1.131186     3.131043
 C     2.192253    -5.454405    -1.305116
 C     3.230311    -4.357019    -1.539638
 H     3.725213    -4.525818    -2.502765
 H     2.749611    -3.372938    -1.623826
 C     4.308908    -4.308081    -0.458877
 H     4.736730    -5.305591    -0.304860
 H     5.137754    -3.665658    -0.777319
 C     3.917151    -3.811563     0.926091
 O     4.691129    -3.929319     1.871049
 N     2.704652    -3.220755     1.071762
 H     2.028099    -3.113147     0.322792
 H     2.442785    -2.939036     2.007362
 C     2.606695     4.123362    -3.678235
 C     2.793213     2.663533    -3.252364
 H     1.829183     2.279930    -2.892707
 H     3.079033     2.054822    -4.119215
 C     3.828302     2.505062    -2.164476
 C     3.530854     2.883089    -0.853907
 H     2.545418     3.281782    -0.624604
 C     4.464169     2.752093     0.172871
 H     4.214220     3.067927     1.185549
 C     5.731441     2.237416    -0.109745
 O     6.679725     2.047820     0.853354
 H     6.352875     2.387551     1.700322
 C     6.058686     1.882495    -1.417139
 H     7.043358     1.474204    -1.619666
 C     5.109793     2.013334    -2.425497
 H     5.369988     1.710803    -3.437661
 C     2.166339     6.095644     0.471802
 C     0.869717     5.288182     0.604882
 H     1.093970     4.304752     1.030650
 H     0.200608     5.796554     1.311315
 C     0.156537     5.111538    -0.716822
 C    -0.052185     3.846002    -1.273005
 H     0.293765     2.962047    -0.738135
 C    -0.692833     3.703577    -2.505135
 H    -0.846759     2.710799    -2.919887
 C    -1.147719     4.823417    -3.194989
 H    -1.651530     4.710853    -4.149913
 C    -0.953085     6.091563    -2.646353
 H    -1.307503     6.972314    -3.173366
 C    -0.306008     6.230250    -1.422485
 H    -0.162941     7.222277    -0.999930
 C    -1.984336     2.632296     4.818328
 C    -2.868654     3.439322     3.877075
 H    -2.625190     3.204680     2.836599
 H    -2.728581     4.514100     4.028848
 S    -4.622540     3.022087     4.147211
 C    -5.342766     3.700832     2.604229
 H    -5.106840     4.765454     2.543069
 H    -6.423960     3.610560     2.741941
 C    -4.901586     2.954055     1.369756
 C    -5.371416     1.644767     1.194661
 C    -4.967799     0.853420     0.119540
 H    -6.035703     1.238268     1.949691
 C    -4.027518     3.519541     0.432902
 C    -3.487994     4.925812     0.545449
 H    -2.945430     5.085664     1.484075
 H    -2.795701     5.131376    -0.276638
 H    -4.289985     5.670967     0.503924
 C    -3.657194     2.732751    -0.664232
 H    -2.983583     3.135427    -1.416133
 C    -4.100815     1.432442    -0.823398
 N    -3.552429     0.660188    -1.897058
 C    -4.230011    -0.597150    -2.131337
 C    -4.047306    -1.239583    -3.398022
 O    -3.348883    -0.834670    -4.331372
 N    -4.704313    -2.461636    -3.483259
 H    -4.581712    -2.988598    -4.340032
 C    -5.508399    -3.041242    -2.500100
 O    -5.966103    -4.166641    -2.692192
 N    -5.732649    -2.327369    -1.360707
 C    -5.102043    -1.177466    -1.185774
 N    -5.380732    -0.480180    -0.017695
 C    -6.313200    -1.027820     0.954672
 C    -2.775316    -2.306419     3.417711
 C    -2.779650    -1.489116     2.124618
 H    -2.818686    -2.172949     1.262859
 H    -3.688782    -0.878985     2.078061
 C    -1.587897    -0.567407     1.991653
 C    -1.762504     0.805028     1.782864
 H    -2.771964     1.212586     1.750427
 C    -0.681835     1.659191     1.584868
 H    -0.833652     2.717788     1.387660
 C     0.614512     1.148713     1.625874
 O     1.645783     2.018640     1.409157
 H     2.467463     1.540381     1.205234
 C     0.818487    -0.207338     1.891497
 H     1.832276    -0.596427     1.975352
 C    -0.277076    -1.052043     2.051424
 H    -0.106780    -2.109162     2.235000
 C    -5.520633    -4.823152     1.134242
 C    -4.314063    -5.755789     0.989708
 H    -4.098004    -6.241635     1.947510
 H    -4.562327    -6.554626     0.280239
 C    -3.078501    -5.028420     0.513343
 C    -1.925140    -4.959855     1.295526
 H    -1.905564    -5.450647     2.265353
 C    -0.784815    -4.296233     0.847082
 H     0.127055    -4.288636     1.437932
 C    -0.805638    -3.663604    -0.390941
 O     0.338575    -2.999805    -0.798373
 H     0.421679    -3.079166    -1.762265
 C    -1.950105    -3.700715    -1.186860
 H    -1.959759    -3.206011    -2.156631
 C    -3.067533    -4.399060    -0.737369
 H    -3.944467    -4.477801    -1.374262
 H    -6.497611    -2.066738     0.697415
 H    -7.260065    -0.475835     0.940341
 H    -5.885643    -0.969222     1.960720
 H    -1.882365    -2.935812     3.485246
 H    -3.647348    -2.966356     3.460424
 H    -2.795393    -1.648466     4.292419
 H    -2.101313     1.560294     4.633456
 H    -2.230805     2.833976     5.865012
 H    -0.934130     2.892988     4.657550
 H     2.861317     5.605620    -0.218020
 H     2.662362     6.194858     1.441779
 H     1.969716     7.101962     0.089613
 H     2.283251     4.731479    -2.825690
 H     1.843855     4.211396    -4.457878
 H     3.545502     4.537683    -4.059119
 H     6.461454    -2.928078     5.366645
 H     5.102401    -3.282405     4.281790
 H     4.812505    -2.489317     5.847629
 H     1.689406    -5.336382    -0.339926
 H     2.673435    -6.437883    -1.311472
 H     1.422303    -5.455431    -2.083581
 H    -5.292549    -4.007101     1.829632
 H    -6.388251    -5.367975     1.518546
 H    -5.789830    -4.376887     0.171129

eps=4.0

--Link1--
%chk=1.chk
%nproc=28
%mem=32GB
#p B3LYP/6-311++G(d,p) SCRF=(CPCM,solvent=water,read) SCF=(Tight,MaxCycle=200)
#p GUESS=Read GEOM=CheckPoint

x

0 1

eps=4.0

--Link1--
%chk=1.chk
%nosave
%nproc=28
%mem=32GB
#p M062X/6-311++G(d,p) SCRF=(CPCM,solvent=water,read) SCF=(Tight,MaxCycle=200)
#p GUESS=Read GEOM=CheckPoint

x

0 1

eps=4.0

